REMARK SMILES CC(C)C[C@H](NC(=O)[C@H](Cc1ccccc1)NC(=O)[C@@H](N)CO)C(=O)N[C@@H](C)C(=O)N[C@@H](CCCCN)C(=O)N[C@@H](CC(N)=O)C(=O)O
REMARK SMILES IDX 24 1 25 2 26 3 5 5 6 6 7 7 8 8 9 10 17 11 18 12 19 13 20 15
REMARK SMILES IDX 21 16 22 19 23 20 10 22 11 23 12 24 16 25 13 26 15 27 14 28
REMARK SMILES IDX 4 29 2 30 1 31 3 32 27 33 28 34 29 35 31 36 30 37 32 39
REMARK SMILES IDX 38 40 40 41 39 42 41 44 46 45 47 46 48 47 42 49 43 50 44 51
REMARK SMILES IDX 45 52 33 55 34 56 35 57 36 58 37 59
REMARK H PARENT 26 4 6 9 17 14 21 17 21 18 23 21 31 38 40 43 48 48 44 53 44 54
REMARK H PARENT 37 60 37 61
ROOT
ATOM      1  C   LEU A   3      -0.811  -0.164  -0.072  1.00  0.00     0.243 C 
ATOM      2  O   LEU A   3      -0.951  -1.273   0.514  1.00  0.00    -0.273 OA
ATOM      3  N   ALA A   4       0.503   0.293  -0.432  1.00  0.00    -0.343 N 
ATOM      4  H   UNL     1       0.589   1.208  -0.931  1.00  0.00     0.164 HD
ENDROOT
BRANCH   1   5
ATOM      5  CA  LEU A   3      -2.020   0.671  -0.430  1.00  0.00     0.171 C 
BRANCH   5   6
ATOM      6  N   LEU A   3      -3.267  -0.086  -0.268  1.00  0.00    -0.343 N 
ATOM      7  C   PHE A   2      -4.416   0.133  -1.100  1.00  0.00     0.243 C 
ATOM      8  O   PHE A   2      -4.349   0.920  -2.084  1.00  0.00    -0.273 OA
ATOM      9  H   UNL     1      -3.376  -0.716   0.560  1.00  0.00     0.164 HD
BRANCH   7  10
ATOM     10  CA  PHE A   2      -5.686  -0.628  -0.835  1.00  0.00     0.175 C 
BRANCH  10  11
ATOM     11  N   PHE A   2      -6.848   0.194  -1.185  1.00  0.00    -0.343 N 
ATOM     12  C   SER A   1      -7.421   1.140  -0.269  1.00  0.00     0.239 C 
ATOM     13  O   SER A   1      -6.898   1.319   0.865  1.00  0.00    -0.273 OA
ATOM     14  H   UNL     1      -7.233   0.137  -2.155  1.00  0.00     0.164 HD
BRANCH  12  15
ATOM     15  CA  SER A   1      -8.679   1.889  -0.626  1.00  0.00     0.167 C 
BRANCH  15  16
ATOM     16  N   SER A   1      -8.622   2.359  -2.011  1.00  0.00    -0.318 NA
ATOM     17  H   UNL     1      -9.479   2.925  -2.205  1.00  0.00     0.119 HD
ATOM     18  H   UNL     1      -7.812   3.016  -2.099  1.00  0.00     0.119 HD
ENDBRANCH  15  16
BRANCH  15  19
ATOM     19  CB  SER A   1      -9.913   0.996  -0.402  1.00  0.00     0.184 C 
BRANCH  19  20
ATOM     20  OG  SER A   1      -9.872  -0.146  -1.220  1.00  0.00    -0.394 OA
ATOM     21  H   UNL     1     -10.185   0.135  -2.117  1.00  0.00     0.210 HD
ENDBRANCH  19  20
ENDBRANCH  15  19
ENDBRANCH  12  15
ENDBRANCH  10  11
BRANCH  10  22
ATOM     22  CB  PHE A   2      -5.687  -1.942  -1.636  1.00  0.00     0.070 C 
BRANCH  22  23
ATOM     23  CG  PHE A   2      -6.890  -2.786  -1.296  1.00  0.00    -0.045 A 
ATOM     24  CD1 PHE A   2      -6.903  -3.555  -0.120  1.00  0.00     0.004 A 
ATOM     25  CD2 PHE A   2      -8.032  -2.767  -2.116  1.00  0.00     0.004 A 
ATOM     26  CE1 PHE A   2      -8.033  -4.304   0.222  1.00  0.00     0.000 A 
ATOM     27  CE2 PHE A   2      -9.160  -3.517  -1.772  1.00  0.00     0.000 A 
ATOM     28  CZ  PHE A   2      -9.161  -4.285  -0.604  1.00  0.00     0.000 A 
ENDBRANCH  22  23
ENDBRANCH  10  22
ENDBRANCH   7  10
ENDBRANCH   5   6
BRANCH   5  29
ATOM     29  CB  LEU A   3      -2.078   2.011   0.345  1.00  0.00     0.038 C 
BRANCH  29  30
ATOM     30  CG  LEU A   3      -2.617   1.938   1.798  1.00  0.00    -0.015 C 
ATOM     31  CD1 LEU A   3      -2.853   3.357   2.335  1.00  0.00     0.007 C 
ATOM     32  CD2 LEU A   3      -1.665   1.185   2.738  1.00  0.00     0.007 C 
ENDBRANCH  29  30
ENDBRANCH   5  29
ENDBRANCH   1   5
BRANCH   3  33
ATOM     33  CA  ALA A   4       1.697  -0.535  -0.231  1.00  0.00     0.168 C 
ATOM     34  CB  ALA A   4       1.772  -1.628  -1.301  1.00  0.00     0.041 C 
BRANCH  33  35
ATOM     35  C   ALA A   4       2.941   0.314  -0.273  1.00  0.00     0.242 C 
ATOM     36  N   LYS A   5       3.846   0.331   0.843  1.00  0.00    -0.343 N 
ATOM     37  O   ALA A   4       3.198   0.989  -1.308  1.00  0.00    -0.273 OA
ATOM     38  H   UNL     1       3.572  -0.184   1.711  1.00  0.00     0.164 HD
BRANCH  36  39
ATOM     39  CA  LYS A   5       5.227   0.813   0.710  1.00  0.00     0.171 C 
BRANCH  39  40
ATOM     40  C   LYS A   5       6.108  -0.276   0.152  1.00  0.00     0.243 C 
ATOM     41  N   ASN A   6       7.230   0.059  -0.677  1.00  0.00    -0.341 N 
ATOM     42  O   LYS A   5       5.872  -1.481   0.443  1.00  0.00    -0.273 OA
ATOM     43  H   UNL     1       7.467   1.069  -0.810  1.00  0.00     0.164 HD
BRANCH  41  44
ATOM     44  CA  ASN A   6       8.160  -0.957  -1.179  1.00  0.00     0.201 C 
BRANCH  44  45
ATOM     45  C   ASN A   6       9.254  -1.173  -0.175  1.00  0.00     0.326 C 
ATOM     46  O   ASN A   6       9.977  -0.207   0.194  1.00  0.00    -0.250 OA
BRANCH  45  47
ATOM     47  OXT ASN A   6       9.462  -2.440   0.360  1.00  0.00    -0.480 OA
ATOM     48  H   UNL     1      10.195  -2.601   1.041  1.00  0.00     0.296 HD
ENDBRANCH  45  47
ENDBRANCH  44  45
BRANCH  44  49
ATOM     49  CB  ASN A   6       8.752  -0.534  -2.536  1.00  0.00     0.136 C 
BRANCH  49  50
ATOM     50  CG  ASN A   6       7.704  -0.384  -3.605  1.00  0.00     0.220 C 
ATOM     51  ND2 ASN A   6       7.861   0.599  -4.631  1.00  0.00    -0.370 N 
ATOM     52  OD1 ASN A   6       6.724  -1.179  -3.650  1.00  0.00    -0.275 OA
ATOM     53  H   UNL     1       7.156   0.675  -5.396  1.00  0.00     0.159 HD
ATOM     54  H   UNL     1       8.688   1.238  -4.639  1.00  0.00     0.159 HD
ENDBRANCH  49  50
ENDBRANCH  44  49
ENDBRANCH  41  44
ENDBRANCH  39  40
BRANCH  39  55
ATOM     55  CB  LYS A   5       5.758   1.369   2.049  1.00  0.00     0.035 C 
BRANCH  55  56
ATOM     56  CG  LYS A   5       6.046   0.304   3.136  1.00  0.00     0.004 C 
BRANCH  56  57
ATOM     57  CD  LYS A   5       7.529  -0.120   3.190  1.00  0.00     0.015 C 
BRANCH  57  58
ATOM     58  CE  LYS A   5       8.356   0.682   4.205  1.00  0.00     0.077 C 
BRANCH  58  59
ATOM     59  NZ  LYS A   5       8.459   2.087   3.812  1.00  0.00    -0.330 NA
ATOM     60  H   UNL     1       7.564   2.566   4.072  1.00  0.00     0.118 HD
ATOM     61  H   UNL     1       9.205   2.529   4.398  1.00  0.00     0.118 HD
ENDBRANCH  58  59
ENDBRANCH  57  58
ENDBRANCH  56  57
ENDBRANCH  55  56
ENDBRANCH  39  55
ENDBRANCH  36  39
ENDBRANCH  33  35
ENDBRANCH   3  33
TORSDOF 26
