REMARK SMILES CC(C)C[C@H](NC(=O)[C@H](CO)NC(=O)[C@H](C)NC(=O)[C@@H](N)CO)C(=O)N[C@@H](CCCNC(=N)N)C(=O)N[C@@H](CC(N)=O)C(=O)O
REMARK SMILES IDX 7 1 8 2 6 3 9 5 12 6 13 7 14 8 15 10 16 11 17 12 18 13 19 14
REMARK SMILES IDX 20 16 21 17 22 20 23 21 10 23 11 24 5 26 24 27 26 28 25 29
REMARK SMILES IDX 27 31 35 32 37 33 36 34 38 36 43 37 44 38 45 39 39 41 40 42
REMARK SMILES IDX 41 43 42 44 28 47 29 48 30 49 31 50 32 51 34 52 33 56 4 58
REMARK SMILES IDX 2 59 1 60 3 61
REMARK H PARENT 6 4 12 9 17 15 21 18 21 19 23 22 11 25 26 30 37 35 45 40 41 45
REMARK H PARENT 41 46 31 53 34 54 34 55 33 57
ROOT
ATOM      1  C   SER A   3       2.199   0.534   0.634  1.00  0.00     0.245 C 
ATOM      2  O   SER A   3       1.918   1.646   1.159  1.00  0.00    -0.273 OA
ATOM      3  N   LEU A   4       1.246  -0.129  -0.214  1.00  0.00    -0.342 N 
ATOM      4  H   UNL     1       1.481  -1.080  -0.581  1.00  0.00     0.164 HD
ENDROOT
BRANCH   1   5
ATOM      5  CA  SER A   3       3.524  -0.114   0.935  1.00  0.00     0.197 C 
BRANCH   5   6
ATOM      6  N   SER A   3       4.605   0.857   0.742  1.00  0.00    -0.340 N 
ATOM      7  C   ALA A   2       5.741   0.608  -0.101  1.00  0.00     0.243 C 
ATOM      8  O   ALA A   2       5.797  -0.438  -0.804  1.00  0.00    -0.273 OA
ATOM      9  H   UNL     1       4.585   1.738   1.305  1.00  0.00     0.164 HD
BRANCH   7  10
ATOM     10  CA  ALA A   2       6.859   1.613  -0.179  1.00  0.00     0.168 C 
ATOM     11  CB  ALA A   2       6.749   2.417  -1.476  1.00  0.00     0.041 C 
BRANCH  10  12
ATOM     12  N   ALA A   2       8.153   0.927  -0.108  1.00  0.00    -0.343 N 
ATOM     13  C   SER A   1       8.652   0.369   1.118  1.00  0.00     0.239 C 
ATOM     14  O   SER A   1       8.012   0.530   2.194  1.00  0.00    -0.273 OA
ATOM     15  H   UNL     1       8.706   0.787  -0.985  1.00  0.00     0.164 HD
BRANCH  13  16
ATOM     16  CA  SER A   1       9.943  -0.402   1.136  1.00  0.00     0.167 C 
BRANCH  16  17
ATOM     17  N   SER A   1       9.913  -1.443   0.107  1.00  0.00    -0.318 NA
ATOM     18  H   UNL     1       9.115  -2.088   0.317  1.00  0.00     0.119 HD
ATOM     19  H   UNL     1      10.781  -2.022   0.194  1.00  0.00     0.119 HD
ENDBRANCH  16  17
BRANCH  16  20
ATOM     20  CB  SER A   1      11.123   0.550   0.904  1.00  0.00     0.184 C 
BRANCH  20  21
ATOM     21  OG  SER A   1      12.331  -0.138   1.075  1.00  0.00    -0.394 OA
ATOM     22  H   UNL     1      13.052   0.527   0.913  1.00  0.00     0.210 HD
ENDBRANCH  20  21
ENDBRANCH  16  20
ENDBRANCH  13  16
ENDBRANCH  10  12
ENDBRANCH   7  10
ENDBRANCH   5   6
BRANCH   5  23
ATOM     23  CB  SER A   3       3.542  -0.643   2.375  1.00  0.00     0.191 C 
BRANCH  23  24
ATOM     24  OG  SER A   3       4.726  -1.354   2.621  1.00  0.00    -0.394 OA
ATOM     25  H   UNL     1       5.422  -0.682   2.839  1.00  0.00     0.210 HD
ENDBRANCH  23  24
ENDBRANCH   5  23
ENDBRANCH   1   5
BRANCH   3  26
ATOM     26  CA  LEU A   4      -0.019   0.482  -0.633  1.00  0.00     0.171 C 
BRANCH  26  27
ATOM     27  C   LEU A   4      -1.167  -0.375  -0.168  1.00  0.00     0.243 C 
ATOM     28  N   ARG A   5      -2.249   0.213   0.569  1.00  0.00    -0.343 N 
ATOM     29  O   LEU A   4      -1.186  -1.603  -0.456  1.00  0.00    -0.273 OA
ATOM     30  H   UNL     1      -2.147   1.198   0.906  1.00  0.00     0.164 HD
BRANCH  28  31
ATOM     31  CA  ARG A   5      -3.455  -0.527   0.944  1.00  0.00     0.171 C 
BRANCH  31  32
ATOM     32  C   ARG A   5      -4.655   0.339   0.663  1.00  0.00     0.243 C 
ATOM     33  N   ASN A   6      -5.382   0.178  -0.564  1.00  0.00    -0.341 N 
ATOM     34  O   ARG A   5      -4.972   1.256   1.470  1.00  0.00    -0.273 OA
ATOM     35  H   UNL     1      -5.115  -0.605  -1.203  1.00  0.00     0.164 HD
BRANCH  33  36
ATOM     36  CA  ASN A   6      -6.441   1.108  -0.966  1.00  0.00     0.201 C 
BRANCH  36  37
ATOM     37  C   ASN A   6      -7.683   0.840  -0.167  1.00  0.00     0.326 C 
ATOM     38  O   ASN A   6      -8.137  -0.332  -0.070  1.00  0.00    -0.250 OA
BRANCH  37  39
ATOM     39  OXT ASN A   6      -8.352   1.896   0.445  1.00  0.00    -0.480 OA
ATOM     40  H   UNL     1      -9.199   1.736   0.977  1.00  0.00     0.296 HD
ENDBRANCH  37  39
ENDBRANCH  36  37
BRANCH  36  41
ATOM     41  CB  ASN A   6      -6.748   0.979  -2.469  1.00  0.00     0.136 C 
BRANCH  41  42
ATOM     42  CG  ASN A   6      -5.539   1.265  -3.316  1.00  0.00     0.220 C 
ATOM     43  ND2 ASN A   6      -5.133   0.341  -4.329  1.00  0.00    -0.370 N 
ATOM     44  OD1 ASN A   6      -4.894   2.336  -3.157  1.00  0.00    -0.275 OA
ATOM     45  H   UNL     1      -5.669  -0.539  -4.498  1.00  0.00     0.159 HD
ATOM     46  H   UNL     1      -4.297   0.543  -4.920  1.00  0.00     0.159 HD
ENDBRANCH  41  42
ENDBRANCH  36  41
ENDBRANCH  33  36
ENDBRANCH  31  32
BRANCH  31  47
ATOM     47  CB  ARG A   5      -3.358  -0.943   2.427  1.00  0.00     0.037 C 
BRANCH  47  48
ATOM     48  CG  ARG A   5      -4.581  -1.718   2.951  1.00  0.00     0.024 C 
BRANCH  48  49
ATOM     49  CD  ARG A   5      -4.754  -3.090   2.284  1.00  0.00     0.116 C 
BRANCH  49  50
ATOM     50  NE  ARG A   5      -5.784  -3.864   2.975  1.00  0.00    -0.357 N 
ATOM     51  CZ  ARG A   5      -7.186  -3.587   2.852  1.00  0.00     0.185 C 
ATOM     52  NH2 ARG A   5      -8.124  -4.332   3.631  1.00  0.00    -0.370 N 
ATOM     53  H   UNL     1      -5.482  -4.673   3.561  1.00  0.00     0.163 HD
ATOM     54  H   UNL     1      -9.148  -4.143   3.562  1.00  0.00     0.159 HD
ATOM     55  H   UNL     1      -7.791  -5.062   4.299  1.00  0.00     0.159 HD
BRANCH  51  56
ATOM     56  NH1 ARG A   5      -7.605  -2.675   2.031  1.00  0.00    -0.270 NA
ATOM     57  H   UNL     1      -8.621  -2.458   1.923  1.00  0.00     0.191 HD
ENDBRANCH  51  56
ENDBRANCH  49  50
ENDBRANCH  48  49
ENDBRANCH  47  48
ENDBRANCH  31  47
ENDBRANCH  28  31
ENDBRANCH  26  27
BRANCH  26  58
ATOM     58  CB  LEU A   4      -0.027   0.645  -2.167  1.00  0.00     0.038 C 
BRANCH  58  59
ATOM     59  CG  LEU A   4      -1.292   1.341  -2.730  1.00  0.00    -0.015 C 
ATOM     60  CD1 LEU A   4      -1.396   2.804  -2.274  1.00  0.00     0.007 C 
ATOM     61  CD2 LEU A   4      -1.276   1.278  -4.262  1.00  0.00     0.007 C 
ENDBRANCH  58  59
ENDBRANCH  26  58
ENDBRANCH   3  26
TORSDOF 26
