REMARK SMILES CC(C)C[C@H](NC(=O)[C@H](CCCNC(=N)N)NC(=O)[C@H](Cc1ccccc1)NC(=O)[C@@H](N)CO)C(=O)N[C@@H](CCCNC(=N)N)C(=O)NCC(=O)O
REMARK SMILES IDX 7 1 8 2 6 3 9 5 17 6 18 7 19 8 20 10 28 11 29 12 30 13 31 15
REMARK SMILES IDX 32 16 33 19 34 20 21 22 22 23 23 24 27 25 24 26 26 27 25 28
REMARK SMILES IDX 10 29 11 30 12 31 13 32 14 33 16 34 15 38 5 40 35 41 37 42
REMARK SMILES IDX 36 43 38 45 46 46 48 47 47 48 49 50 50 51 51 52 52 53 39 55
REMARK SMILES IDX 40 56 41 57 42 58 43 59 45 60 44 64 4 66 2 67 1 68 3 69
REMARK H PARENT 6 4 17 9 28 14 32 17 32 18 34 21 13 35 16 36 16 37 15 39 37 44
REMARK H PARENT 48 49 52 54 42 61 45 62 45 63 44 65
ROOT
ATOM      1  C   ARG A   3      -0.582   1.590  -0.907  1.00  0.00     0.243 C 
ATOM      2  O   ARG A   3      -0.231   0.521  -1.480  1.00  0.00    -0.273 OA
ATOM      3  N   LEU A   4       0.394   2.623  -0.682  1.00  0.00    -0.343 N 
ATOM      4  H   UNL     1       0.122   3.474  -0.139  1.00  0.00     0.164 HD
ENDROOT
BRANCH   1   5
ATOM      5  CA  ARG A   3      -2.044   1.800  -0.565  1.00  0.00     0.171 C 
BRANCH   5   6
ATOM      6  N   ARG A   3      -2.752   0.512  -0.553  1.00  0.00    -0.343 N 
ATOM      7  C   PHE A   2      -3.856   0.216  -1.421  1.00  0.00     0.243 C 
ATOM      8  O   PHE A   2      -4.247   1.065  -2.269  1.00  0.00    -0.273 OA
ATOM      9  H   UNL     1      -2.427  -0.232   0.110  1.00  0.00     0.164 HD
BRANCH   7  10
ATOM     10  CA  PHE A   2      -4.503  -1.142  -1.375  1.00  0.00     0.175 C 
BRANCH  10  11
ATOM     11  N   PHE A   2      -5.935  -1.022  -1.676  1.00  0.00    -0.343 N 
ATOM     12  C   SER A   1      -6.958  -1.199  -0.686  1.00  0.00     0.239 C 
ATOM     13  O   SER A   1      -6.649  -1.368   0.526  1.00  0.00    -0.273 OA
ATOM     14  H   UNL     1      -6.221  -0.751  -2.645  1.00  0.00     0.164 HD
BRANCH  12  15
ATOM     15  CA  SER A   1      -8.409  -1.124  -1.081  1.00  0.00     0.167 C 
BRANCH  15  16
ATOM     16  N   SER A   1      -9.172  -2.162  -0.384  1.00  0.00    -0.318 NA
ATOM     17  H   UNL     1      -8.759  -3.093  -0.633  1.00  0.00     0.119 HD
ATOM     18  H   UNL     1     -10.147  -2.176  -0.764  1.00  0.00     0.119 HD
ENDBRANCH  15  16
BRANCH  15  19
ATOM     19  CB  SER A   1      -8.962   0.270  -0.743  1.00  0.00     0.184 C 
BRANCH  19  20
ATOM     20  OG  SER A   1     -10.248   0.435  -1.277  1.00  0.00    -0.394 OA
ATOM     21  H   UNL     1     -10.890   0.130  -0.586  1.00  0.00     0.210 HD
ENDBRANCH  19  20
ENDBRANCH  15  19
ENDBRANCH  12  15
ENDBRANCH  10  11
BRANCH  10  22
ATOM     22  CB  PHE A   2      -3.826  -2.085  -2.381  1.00  0.00     0.070 C 
BRANCH  22  23
ATOM     23  CG  PHE A   2      -4.398  -3.476  -2.289  1.00  0.00    -0.045 A 
ATOM     24  CD1 PHE A   2      -5.446  -3.872  -3.136  1.00  0.00     0.004 A 
ATOM     25  CD2 PHE A   2      -3.926  -4.372  -1.315  1.00  0.00     0.004 A 
ATOM     26  CE1 PHE A   2      -6.002  -5.150  -3.022  1.00  0.00     0.000 A 
ATOM     27  CE2 PHE A   2      -4.481  -5.651  -1.208  1.00  0.00     0.000 A 
ATOM     28  CZ  PHE A   2      -5.519  -6.040  -2.060  1.00  0.00     0.000 A 
ENDBRANCH  22  23
ENDBRANCH  10  22
ENDBRANCH   7  10
ENDBRANCH   5   6
BRANCH   5  29
ATOM     29  CB  ARG A   3      -2.290   2.542   0.768  1.00  0.00     0.037 C 
BRANCH  29  30
ATOM     30  CG  ARG A   3      -1.630   1.875   1.989  1.00  0.00     0.024 C 
BRANCH  30  31
ATOM     31  CD  ARG A   3      -1.796   2.756   3.235  1.00  0.00     0.116 C 
BRANCH  31  32
ATOM     32  NE  ARG A   3      -1.186   2.129   4.409  1.00  0.00    -0.357 N 
ATOM     33  CZ  ARG A   3      -1.146   2.752   5.704  1.00  0.00     0.185 C 
ATOM     34  NH2 ARG A   3      -0.507   2.077   6.788  1.00  0.00    -0.370 N 
ATOM     35  H   UNL     1      -0.744   1.185   4.308  1.00  0.00     0.163 HD
ATOM     36  H   UNL     1      -0.458   2.519   7.732  1.00  0.00     0.159 HD
ATOM     37  H   UNL     1      -0.083   1.134   6.651  1.00  0.00     0.159 HD
BRANCH  33  38
ATOM     38  NH1 ARG A   3      -1.671   3.919   5.912  1.00  0.00    -0.270 NA
ATOM     39  H   UNL     1      -2.154   4.478   5.174  1.00  0.00     0.191 HD
ENDBRANCH  33  38
ENDBRANCH  31  32
ENDBRANCH  30  31
ENDBRANCH  29  30
ENDBRANCH   5  29
ENDBRANCH   1   5
BRANCH   3  40
ATOM     40  CA  LEU A   4       1.771   2.511  -1.177  1.00  0.00     0.171 C 
BRANCH  40  41
ATOM     41  C   LEU A   4       2.520   1.476  -0.381  1.00  0.00     0.243 C 
ATOM     42  N   ARG A   5       3.491   0.642  -1.027  1.00  0.00    -0.343 N 
ATOM     43  O   LEU A   4       2.325   1.380   0.862  1.00  0.00    -0.273 OA
ATOM     44  H   UNL     1       3.685   0.801  -2.043  1.00  0.00     0.164 HD
BRANCH  42  45
ATOM     45  CA  ARG A   5       4.200  -0.429  -0.319  1.00  0.00     0.171 C 
BRANCH  45  46
ATOM     46  C   ARG A   5       5.226   0.189   0.595  1.00  0.00     0.243 C 
ATOM     47  N   GLY A   6       5.172  -0.051   2.010  1.00  0.00    -0.343 N 
ATOM     48  O   ARG A   5       6.118   0.938   0.114  1.00  0.00    -0.273 OA
ATOM     49  H   UNL     1       4.488  -0.745   2.380  1.00  0.00     0.164 HD
BRANCH  47  50
ATOM     50  CA  GLY A   6       5.939   0.743   2.968  1.00  0.00     0.238 C 
BRANCH  50  51
ATOM     51  C   GLY A   6       7.396   0.402   2.917  1.00  0.00     0.322 C 
ATOM     52  O   GLY A   6       7.766  -0.792   2.750  1.00  0.00    -0.250 OA
BRANCH  51  53
ATOM     53  OXT GLY A   6       8.346   1.402   3.117  1.00  0.00    -0.480 OA
ATOM     54  H   UNL     1       9.336   1.185   3.088  1.00  0.00     0.296 HD
ENDBRANCH  51  53
ENDBRANCH  50  51
ENDBRANCH  47  50
ENDBRANCH  45  46
BRANCH  45  55
ATOM     55  CB  ARG A   5       4.841  -1.401  -1.338  1.00  0.00     0.037 C 
BRANCH  55  56
ATOM     56  CG  ARG A   5       5.285  -2.746  -0.729  1.00  0.00     0.024 C 
BRANCH  56  57
ATOM     57  CD  ARG A   5       6.712  -2.702  -0.167  1.00  0.00     0.116 C 
BRANCH  57  58
ATOM     58  NE  ARG A   5       7.113  -4.013   0.345  1.00  0.00    -0.357 N 
ATOM     59  CZ  ARG A   5       8.367  -4.249   1.010  1.00  0.00     0.185 C 
ATOM     60  NH2 ARG A   5       8.628  -5.533   1.571  1.00  0.00    -0.370 N 
ATOM     61  H   UNL     1       6.447  -4.816   0.269  1.00  0.00     0.163 HD
ATOM     62  H   UNL     1       7.945  -6.318   1.458  1.00  0.00     0.159 HD
ATOM     63  H   UNL     1       9.515  -5.720   2.090  1.00  0.00     0.159 HD
BRANCH  59  64
ATOM     64  NH1 ARG A   5       9.273  -3.325   1.105  1.00  0.00    -0.270 NA
ATOM     65  H   UNL     1       9.158  -2.368   0.710  1.00  0.00     0.191 HD
ENDBRANCH  59  64
ENDBRANCH  57  58
ENDBRANCH  56  57
ENDBRANCH  55  56
ENDBRANCH  45  55
ENDBRANCH  42  45
ENDBRANCH  40  41
BRANCH  40  66
ATOM     66  CB  LEU A   4       2.518   3.865  -1.082  1.00  0.00     0.038 C 
BRANCH  66  67
ATOM     67  CG  LEU A   4       2.165   4.904  -2.177  1.00  0.00    -0.015 C 
ATOM     68  CD1 LEU A   4       2.542   4.423  -3.588  1.00  0.00     0.007 C 
ATOM     69  CD2 LEU A   4       0.702   5.368  -2.127  1.00  0.00     0.007 C 
ENDBRANCH  66  67
ENDBRANCH  40  66
ENDBRANCH   3  40
TORSDOF 29
