REMARK SMILES CC(C)C[C@H](NC(=O)[C@H](CCCNC(=N)N)NC(=O)[C@@H](N)CO)C(=O)N[C@@H](Cc1ccccc1)C(=O)N[C@@H](CCCNC(=N)N)C(=O)N[C@@H](CC(N)=O)C(=O)O
REMARK SMILES IDX 24 1 25 2 26 3 5 5 6 6 7 7 8 8 9 10 17 11 18 12 19 13 20 15
REMARK SMILES IDX 21 16 22 19 23 20 10 22 11 23 12 24 13 25 14 26 16 27 15 31
REMARK SMILES IDX 4 33 2 34 1 35 3 36 27 37 35 38 37 39 36 40 38 42 46 43
REMARK SMILES IDX 48 44 47 45 49 47 54 48 55 49 56 50 50 52 51 53 52 54 53 55
REMARK SMILES IDX 39 58 40 59 41 60 42 61 43 62 45 63 44 67 28 69 29 70 30 71
REMARK SMILES IDX 34 72 31 73 33 74 32 75
REMARK H PARENT 26 4 6 9 17 14 21 17 21 18 23 21 13 28 16 29 16 30 15 32 37 41
REMARK H PARENT 48 46 56 51 52 56 52 57 42 64 45 65 45 66 44 68
ROOT
ATOM      1  C   LEU A   3      20.047  10.081  -6.473  1.00  0.00     0.243 C 
ATOM      2  O   LEU A   3      20.161   9.157  -5.620  1.00  0.00    -0.273 OA
ATOM      3  N   PHE A   4      20.569   9.916  -7.781  1.00  0.00    -0.342 N 
ATOM      4  H   UNL     1      20.408  10.658  -8.500  1.00  0.00     0.164 HD
ENDROOT
BRANCH   1   5
ATOM      5  CA  LEU A   3      19.330  11.347  -6.138  1.00  0.00     0.171 C 
BRANCH   5   6
ATOM      6  N   LEU A   3      18.076  11.011  -5.515  1.00  0.00    -0.343 N 
ATOM      7  C   ARG A   2      16.881  11.740  -5.739  1.00  0.00     0.243 C 
ATOM      8  O   ARG A   2      16.901  12.788  -6.445  1.00  0.00    -0.273 OA
ATOM      9  H   UNL     1      18.149  10.379  -4.693  1.00  0.00     0.164 HD
BRANCH   7  10
ATOM     10  CA  ARG A   2      15.625  11.290  -5.045  1.00  0.00     0.171 C 
BRANCH  10  11
ATOM     11  N   ARG A   2      14.474  11.746  -5.797  1.00  0.00    -0.343 N 
ATOM     12  C   SER A   1      13.913  13.045  -5.641  1.00  0.00     0.239 C 
ATOM     13  O   SER A   1      14.436  13.857  -4.829  1.00  0.00    -0.273 OA
ATOM     14  H   UNL     1      14.067  11.069  -6.471  1.00  0.00     0.164 HD
BRANCH  12  15
ATOM     15  CA  SER A   1      12.651  13.406  -6.388  1.00  0.00     0.167 C 
BRANCH  15  16
ATOM     16  N   SER A   1      12.466  14.859  -6.381  1.00  0.00    -0.318 NA
ATOM     17  H   UNL     1      12.308  15.169  -5.394  1.00  0.00     0.119 HD
ATOM     18  H   UNL     1      11.578  15.088  -6.884  1.00  0.00     0.119 HD
ENDBRANCH  15  16
BRANCH  15  19
ATOM     19  CB  SER A   1      12.673  12.894  -7.852  1.00  0.00     0.184 C 
BRANCH  19  20
ATOM     20  OG  SER A   1      11.423  13.070  -8.454  1.00  0.00    -0.394 OA
ATOM     21  H   UNL     1      10.811  12.400  -8.050  1.00  0.00     0.210 HD
ENDBRANCH  19  20
ENDBRANCH  15  19
ENDBRANCH  12  15
ENDBRANCH  10  11
BRANCH  10  22
ATOM     22  CB  ARG A   2      15.555   9.743  -4.924  1.00  0.00     0.037 C 
BRANCH  22  23
ATOM     23  CG  ARG A   2      14.407   9.248  -4.037  1.00  0.00     0.024 C 
BRANCH  23  24
ATOM     24  CD  ARG A   2      13.030   9.246  -4.720  1.00  0.00     0.116 C 
BRANCH  24  25
ATOM     25  NE  ARG A   2      12.079   8.443  -3.951  1.00  0.00    -0.357 N 
ATOM     26  CZ  ARG A   2      12.056   7.008  -3.988  1.00  0.00     0.185 C 
ATOM     27  NH2 ARG A   2      11.101   6.296  -3.196  1.00  0.00    -0.370 N 
ATOM     28  H   UNL     1      11.349   8.941  -3.394  1.00  0.00     0.163 HD
ATOM     29  H   UNL     1      10.428   6.813  -2.589  1.00  0.00     0.159 HD
ATOM     30  H   UNL     1      11.064   5.253  -3.210  1.00  0.00     0.159 HD
BRANCH  26  31
ATOM     31  NH1 ARG A   2      12.888   6.358  -4.740  1.00  0.00    -0.270 NA
ATOM     32  H   UNL     1      12.889   5.315  -4.785  1.00  0.00     0.191 HD
ENDBRANCH  26  31
ENDBRANCH  24  25
ENDBRANCH  23  24
ENDBRANCH  22  23
ENDBRANCH  10  22
ENDBRANCH   7  10
ENDBRANCH   5   6
BRANCH   5  33
ATOM     33  CB  LEU A   3      20.160  12.249  -5.215  1.00  0.00     0.038 C 
BRANCH  33  34
ATOM     34  CG  LEU A   3      20.417  11.680  -3.790  1.00  0.00    -0.015 C 
ATOM     35  CD1 LEU A   3      21.820  12.067  -3.319  1.00  0.00     0.007 C 
ATOM     36  CD2 LEU A   3      19.371  12.172  -2.778  1.00  0.00     0.007 C 
ENDBRANCH  33  34
ENDBRANCH   5  33
ENDBRANCH   1   5
BRANCH   3  37
ATOM     37  CA  PHE A   4      21.352   8.750  -8.147  1.00  0.00     0.175 C 
BRANCH  37  38
ATOM     38  C   PHE A   4      22.716   9.205  -8.528  1.00  0.00     0.243 C 
ATOM     39  N   ARG A   5      23.823   8.715  -7.788  1.00  0.00    -0.343 N 
ATOM     40  O   PHE A   4      22.879  10.027  -9.471  1.00  0.00    -0.273 OA
ATOM     41  H   UNL     1      23.669   8.014  -7.027  1.00  0.00     0.164 HD
BRANCH  39  42
ATOM     42  CA  ARG A   5      25.186   9.120  -8.073  1.00  0.00     0.171 C 
BRANCH  42  43
ATOM     43  C   ARG A   5      25.901   7.967  -8.686  1.00  0.00     0.243 C 
ATOM     44  N   ASN A   6      25.914   7.864 -10.103  1.00  0.00    -0.341 N 
ATOM     45  O   ARG A   5      26.448   7.086  -7.970  1.00  0.00    -0.273 OA
ATOM     46  H   UNL     1      25.490   8.647 -10.651  1.00  0.00     0.164 HD
BRANCH  44  47
ATOM     47  CA  ASN A   6      26.543   6.751 -10.805  1.00  0.00     0.201 C 
BRANCH  47  48
ATOM     48  C   ASN A   6      27.993   6.642 -10.415  1.00  0.00     0.326 C 
ATOM     49  O   ASN A   6      28.795   7.578 -10.676  1.00  0.00    -0.250 OA
BRANCH  48  50
ATOM     50  OXT ASN A   6      28.451   5.499  -9.767  1.00  0.00    -0.480 OA
ATOM     51  H   UNL     1      29.423   5.408  -9.497  1.00  0.00     0.296 HD
ENDBRANCH  48  50
ENDBRANCH  47  48
BRANCH  47  52
ATOM     52  CB  ASN A   6      26.429   6.950 -12.324  1.00  0.00     0.136 C 
BRANCH  52  53
ATOM     53  CG  ASN A   6      25.017   7.186 -12.776  1.00  0.00     0.220 C 
ATOM     54  ND2 ASN A   6      24.759   8.093 -13.838  1.00  0.00    -0.370 N 
ATOM     55  OD1 ASN A   6      24.061   6.570 -12.241  1.00  0.00    -0.275 OA
ATOM     56  H   UNL     1      25.539   8.599 -14.313  1.00  0.00     0.159 HD
ATOM     57  H   UNL     1      23.780   8.261 -14.159  1.00  0.00     0.159 HD
ENDBRANCH  52  53
ENDBRANCH  47  52
ENDBRANCH  44  47
ENDBRANCH  42  43
BRANCH  42  58
ATOM     58  CB  ARG A   5      25.861   9.603  -6.794  1.00  0.00     0.037 C 
BRANCH  58  59
ATOM     59  CG  ARG A   5      25.164  10.858  -6.270  1.00  0.00     0.024 C 
BRANCH  59  60
ATOM     60  CD  ARG A   5      25.839  11.391  -5.014  1.00  0.00     0.116 C 
BRANCH  60  61
ATOM     61  NE  ARG A   5      25.378  10.686  -3.820  1.00  0.00    -0.357 N 
ATOM     62  CZ  ARG A   5      25.469  11.281  -2.526  1.00  0.00     0.185 C 
ATOM     63  NH2 ARG A   5      26.107  12.546  -2.352  1.00  0.00    -0.370 N 
ATOM     64  H   UNL     1      24.895   9.763  -3.912  1.00  0.00     0.163 HD
ATOM     65  H   UNL     1      26.697  12.982  -3.093  1.00  0.00     0.159 HD
ATOM     66  H   UNL     1      26.080  13.024  -1.423  1.00  0.00     0.159 HD
BRANCH  62  67
ATOM     67  NH1 ARG A   5      24.954  10.672  -1.507  1.00  0.00    -0.270 NA
ATOM     68  H   UNL     1      24.995  11.077  -0.545  1.00  0.00     0.191 HD
ENDBRANCH  62  67
ENDBRANCH  60  61
ENDBRANCH  59  60
ENDBRANCH  58  59
ENDBRANCH  42  58
ENDBRANCH  39  42
ENDBRANCH  37  38
BRANCH  37  69
ATOM     69  CB  PHE A   4      20.660   7.990  -9.282  1.00  0.00     0.070 C 
BRANCH  69  70
ATOM     70  CG  PHE A   4      21.386   6.752  -9.777  1.00  0.00    -0.045 A 
ATOM     71  CD1 PHE A   4      21.112   6.306 -11.084  1.00  0.00     0.004 A 
ATOM     72  CD2 PHE A   4      22.156   5.923  -8.932  1.00  0.00     0.004 A 
ATOM     73  CE1 PHE A   4      21.616   5.086 -11.544  1.00  0.00     0.000 A 
ATOM     74  CE2 PHE A   4      22.685   4.719  -9.408  1.00  0.00     0.000 A 
ATOM     75  CZ  PHE A   4      22.414   4.300 -10.711  1.00  0.00     0.000 A 
ENDBRANCH  69  70
ENDBRANCH  37  69
ENDBRANCH   3  37
TORSDOF 31
