REMARK SMILES CC(C)C[C@H](NC(=O)[C@H](CCCCN)NC(=O)[C@H](Cc1ccccc1)NC(=O)[C@@H](N)CO)C(=O)N[C@@H](CC(N)=O)C(=O)N[C@@H](CC(N)=O)C(=O)O
REMARK SMILES IDX 7 1 8 2 6 3 9 5 15 6 16 7 17 8 18 10 26 11 27 12 28 13 29 15
REMARK SMILES IDX 30 16 31 19 32 20 19 22 20 23 21 24 25 25 22 26 24 27 23 28
REMARK SMILES IDX 10 29 11 30 12 31 13 32 14 33 5 36 33 37 35 38 34 39 36 41
REMARK SMILES IDX 41 42 43 43 42 44 44 46 49 47 50 48 51 49 45 51 46 52 47 53
REMARK SMILES IDX 48 54 37 57 38 58 39 59 40 60 4 63 2 64 1 65 3 66
REMARK H PARENT 6 4 15 9 26 14 30 17 30 18 32 21 14 34 14 35 35 40 43 45 51 50
REMARK H PARENT 47 55 47 56 39 61 39 62
ROOT
ATOM      1  C   LYS A   3      20.038  10.083  -6.471  1.00  0.00     0.243 C 
ATOM      2  O   LYS A   3      20.149   9.161  -5.616  1.00  0.00    -0.273 OA
ATOM      3  N   LEU A   4      20.566   9.921  -7.776  1.00  0.00    -0.343 N 
ATOM      4  H   UNL     1      20.406  10.664  -8.496  1.00  0.00     0.164 HD
ENDROOT
BRANCH   1   5
ATOM      5  CA  LYS A   3      19.337  11.358  -6.139  1.00  0.00     0.171 C 
BRANCH   5   6
ATOM      6  N   LYS A   3      18.087  11.048  -5.498  1.00  0.00    -0.343 N 
ATOM      7  C   PHE A   2      16.885  11.749  -5.772  1.00  0.00     0.243 C 
ATOM      8  O   PHE A   2      16.901  12.792  -6.483  1.00  0.00    -0.273 OA
ATOM      9  H   UNL     1      18.162  10.511  -4.609  1.00  0.00     0.164 HD
BRANCH   7  10
ATOM     10  CA  PHE A   2      15.651  11.313  -5.058  1.00  0.00     0.175 C 
BRANCH  10  11
ATOM     11  N   PHE A   2      14.454  11.739  -5.768  1.00  0.00    -0.343 N 
ATOM     12  C   SER A   1      13.916  13.049  -5.634  1.00  0.00     0.239 C 
ATOM     13  O   SER A   1      14.447  13.867  -4.833  1.00  0.00    -0.273 OA
ATOM     14  H   UNL     1      13.866  11.000  -6.209  1.00  0.00     0.164 HD
BRANCH  12  15
ATOM     15  CA  SER A   1      12.661  13.410  -6.390  1.00  0.00     0.167 C 
BRANCH  15  16
ATOM     16  N   SER A   1      12.454  14.860  -6.402  1.00  0.00    -0.318 NA
ATOM     17  H   UNL     1      12.283  15.189  -5.423  1.00  0.00     0.119 HD
ATOM     18  H   UNL     1      13.315  15.337  -6.757  1.00  0.00     0.119 HD
ENDBRANCH  15  16
BRANCH  15  19
ATOM     19  CB  SER A   1      12.693  12.887  -7.842  1.00  0.00     0.184 C 
BRANCH  19  20
ATOM     20  OG  SER A   1      11.438  13.058  -8.437  1.00  0.00    -0.394 OA
ATOM     21  H   UNL     1      11.539  12.786  -9.386  1.00  0.00     0.210 HD
ENDBRANCH  19  20
ENDBRANCH  15  19
ENDBRANCH  12  15
ENDBRANCH  10  11
BRANCH  10  22
ATOM     22  CB  PHE A   2      15.613   9.773  -4.890  1.00  0.00     0.070 C 
BRANCH  22  23
ATOM     23  CG  PHE A   2      14.444   9.289  -4.090  1.00  0.00    -0.045 A 
ATOM     24  CD1 PHE A   2      13.903  10.046  -3.033  1.00  0.00     0.004 A 
ATOM     25  CD2 PHE A   2      13.968   7.989  -4.310  1.00  0.00     0.004 A 
ATOM     26  CE1 PHE A   2      12.869   9.535  -2.260  1.00  0.00     0.000 A 
ATOM     27  CE2 PHE A   2      12.939   7.477  -3.521  1.00  0.00     0.000 A 
ATOM     28  CZ  PHE A   2      12.386   8.252  -2.502  1.00  0.00     0.000 A 
ENDBRANCH  22  23
ENDBRANCH  10  22
ENDBRANCH   7  10
ENDBRANCH   5   6
BRANCH   5  29
ATOM     29  CB  LYS A   3      20.189  12.251  -5.232  1.00  0.00     0.035 C 
BRANCH  29  30
ATOM     30  CG  LYS A   3      20.417  11.696  -3.807  1.00  0.00     0.004 C 
BRANCH  30  31
ATOM     31  CD  LYS A   3      21.796  12.101  -3.289  1.00  0.00     0.015 C 
BRANCH  31  32
ATOM     32  CE  LYS A   3      22.024  11.596  -1.857  1.00  0.00     0.077 C 
BRANCH  32  33
ATOM     33  NZ  LYS A   3      23.347  11.974  -1.365  1.00  0.00    -0.330 NA
ATOM     34  H   UNL     1      24.072  11.574  -2.005  1.00  0.00     0.118 HD
ATOM     35  H   UNL     1      23.434  13.015  -1.397  1.00  0.00     0.118 HD
ENDBRANCH  32  33
ENDBRANCH  31  32
ENDBRANCH  30  31
ENDBRANCH  29  30
ENDBRANCH   5  29
ENDBRANCH   1   5
BRANCH   3  36
ATOM     36  CA  LEU A   4      21.351   8.760  -8.141  1.00  0.00     0.171 C 
BRANCH  36  37
ATOM     37  C   LEU A   4      22.716   9.218  -8.519  1.00  0.00     0.243 C 
ATOM     38  N   ASN A   5      23.826   8.740  -7.771  1.00  0.00    -0.342 N 
ATOM     39  O   LEU A   4      22.879  10.030  -9.471  1.00  0.00    -0.273 OA
ATOM     40  H   UNL     1      23.672   8.058  -6.993  1.00  0.00     0.164 HD
BRANCH  38  41
ATOM     41  CA  ASN A   5      25.189   9.139  -8.069  1.00  0.00     0.180 C 
BRANCH  41  42
ATOM     42  C   ASN A   5      25.899   7.978  -8.682  1.00  0.00     0.243 C 
ATOM     43  N   ASN A   6      25.911   7.870 -10.100  1.00  0.00    -0.340 N 
ATOM     44  O   ASN A   5      26.444   7.095  -7.966  1.00  0.00    -0.273 OA
ATOM     45  H   UNL     1      25.487   8.652 -10.650  1.00  0.00     0.164 HD
BRANCH  43  46
ATOM     46  CA  ASN A   6      26.540   6.754 -10.801  1.00  0.00     0.201 C 
BRANCH  46  47
ATOM     47  C   ASN A   6      27.991   6.644 -10.413  1.00  0.00     0.326 C 
ATOM     48  O   ASN A   6      28.794   7.579 -10.677  1.00  0.00    -0.250 OA
BRANCH  47  49
ATOM     49  OXT ASN A   6      28.447   5.502  -9.763  1.00  0.00    -0.480 OA
ATOM     50  H   UNL     1      29.420   5.411  -9.494  1.00  0.00     0.296 HD
ENDBRANCH  47  49
ENDBRANCH  46  47
BRANCH  46  51
ATOM     51  CB  ASN A   6      26.423   6.948 -12.321  1.00  0.00     0.136 C 
BRANCH  51  52
ATOM     52  CG  ASN A   6      25.010   7.181 -12.772  1.00  0.00     0.220 C 
ATOM     53  ND2 ASN A   6      24.753   8.090 -13.833  1.00  0.00    -0.370 N 
ATOM     54  OD1 ASN A   6      24.052   6.558 -12.243  1.00  0.00    -0.275 OA
ATOM     55  H   UNL     1      23.775   8.257 -14.157  1.00  0.00     0.159 HD
ATOM     56  H   UNL     1      25.533   8.600 -14.305  1.00  0.00     0.159 HD
ENDBRANCH  51  52
ENDBRANCH  46  51
ENDBRANCH  43  46
ENDBRANCH  41  42
BRANCH  41  57
ATOM     57  CB  ASN A   5      25.881   9.636  -6.801  1.00  0.00     0.134 C 
BRANCH  57  58
ATOM     58  CG  ASN A   5      25.169  10.826  -6.227  1.00  0.00     0.220 C 
ATOM     59  ND2 ASN A   5      25.228  12.095  -6.877  1.00  0.00    -0.370 N 
ATOM     60  OD1 ASN A   5      24.505  10.698  -5.166  1.00  0.00    -0.275 OA
ATOM     61  H   UNL     1      25.786  12.220  -7.752  1.00  0.00     0.159 HD
ATOM     62  H   UNL     1      24.716  12.913  -6.481  1.00  0.00     0.159 HD
ENDBRANCH  57  58
ENDBRANCH  41  57
ENDBRANCH  38  41
ENDBRANCH  36  37
BRANCH  36  63
ATOM     63  CB  LEU A   4      20.658   7.999  -9.273  1.00  0.00     0.038 C 
BRANCH  63  64
ATOM     64  CG  LEU A   4      21.450   6.771  -9.769  1.00  0.00    -0.015 C 
ATOM     65  CD1 LEU A   4      21.765   5.780  -8.639  1.00  0.00     0.007 C 
ATOM     66  CD2 LEU A   4      20.662   6.066 -10.877  1.00  0.00     0.007 C 
ENDBRANCH  63  64
ENDBRANCH  36  63
ENDBRANCH   3  36
TORSDOF 28
