REMARK SMILES CC(C)C[C@H](NC(=O)[C@H](CCC(N)=O)NC(=O)[C@H](Cc1ccccc1)NC(=O)[C@@H](N)CO)C(=O)N[C@@H](CCCNC(=N)N)C(=O)N[C@@H](CCC(N)=O)C(=O)O
REMARK SMILES IDX 7 1 8 2 6 3 9 5 15 6 16 7 17 8 18 10 26 11 27 12 28 13 29 15
REMARK SMILES IDX 30 16 31 19 32 20 19 22 20 23 21 24 25 25 22 26 24 27 23 28
REMARK SMILES IDX 10 29 11 30 12 31 13 32 14 33 5 36 33 37 35 38 34 39 36 41
REMARK SMILES IDX 44 42 46 43 45 44 47 46 53 47 54 48 55 49 48 51 49 52 50 53
REMARK SMILES IDX 51 54 52 55 37 58 38 59 39 60 40 61 41 62 43 63 42 67 4 69
REMARK SMILES IDX 2 70 1 71 3 72
REMARK H PARENT 6 4 15 9 26 14 30 17 30 18 32 21 13 34 13 35 35 40 46 45 55 50
REMARK H PARENT 51 56 51 57 40 64 43 65 43 66 42 68
ROOT
ATOM      1  C   GLN A   3       1.172  -0.355  -0.440  1.00  0.00     0.243 C 
ATOM      2  O   GLN A   3       0.727  -1.413   0.087  1.00  0.00    -0.273 OA
ATOM      3  N   LEU A   4       0.460   0.883  -0.283  1.00  0.00    -0.343 N 
ATOM      4  H   UNL     1       0.799   1.726  -0.800  1.00  0.00     0.164 HD
ENDROOT
BRANCH   1   5
ATOM      5  CA  GLN A   3       2.441  -0.404  -1.254  1.00  0.00     0.171 C 
BRANCH   5   6
ATOM      6  N   GLN A   3       3.503  -1.031  -0.462  1.00  0.00    -0.342 N 
ATOM      7  C   PHE A   2       4.863  -0.573  -0.469  1.00  0.00     0.243 C 
ATOM      8  O   PHE A   2       5.199   0.421  -1.169  1.00  0.00    -0.273 OA
ATOM      9  H   UNL     1       3.289  -1.925   0.039  1.00  0.00     0.164 HD
BRANCH   7  10
ATOM     10  CA  PHE A   2       5.877  -1.243   0.422  1.00  0.00     0.175 C 
BRANCH  10  11
ATOM     11  N   PHE A   2       7.239  -1.052  -0.093  1.00  0.00    -0.343 N 
ATOM     12  C   SER A   1       7.820  -1.933  -1.068  1.00  0.00     0.239 C 
ATOM     13  O   SER A   1       7.099  -2.785  -1.650  1.00  0.00    -0.273 OA
ATOM     14  H   UNL     1       7.781  -0.216   0.211  1.00  0.00     0.164 HD
BRANCH  12  15
ATOM     15  CA  SER A   1       9.297  -1.878  -1.397  1.00  0.00     0.167 C 
BRANCH  15  16
ATOM     16  N   SER A   1       9.717  -0.546  -1.843  1.00  0.00    -0.318 NA
ATOM     17  H   UNL     1       9.598   0.153  -1.076  1.00  0.00     0.119 HD
ATOM     18  H   UNL     1       9.106  -0.245  -2.637  1.00  0.00     0.119 HD
ENDBRANCH  15  16
BRANCH  15  19
ATOM     19  CB  SER A   1      10.163  -2.362  -0.220  1.00  0.00     0.184 C 
BRANCH  19  20
ATOM     20  OG  SER A   1       9.974  -1.569   0.925  1.00  0.00    -0.394 OA
ATOM     21  H   UNL     1      10.644  -0.836   0.879  1.00  0.00     0.210 HD
ENDBRANCH  19  20
ENDBRANCH  15  19
ENDBRANCH  12  15
ENDBRANCH  10  11
BRANCH  10  22
ATOM     22  CB  PHE A   2       5.757  -0.764   1.886  1.00  0.00     0.070 C 
BRANCH  22  23
ATOM     23  CG  PHE A   2       5.950   0.725   2.065  1.00  0.00    -0.045 A 
ATOM     24  CD1 PHE A   2       4.874   1.610   1.877  1.00  0.00     0.004 A 
ATOM     25  CD2 PHE A   2       7.206   1.242   2.423  1.00  0.00     0.004 A 
ATOM     26  CE1 PHE A   2       5.053   2.988   2.041  1.00  0.00     0.000 A 
ATOM     27  CE2 PHE A   2       7.386   2.621   2.575  1.00  0.00     0.000 A 
ATOM     28  CZ  PHE A   2       6.309   3.492   2.387  1.00  0.00     0.000 A 
ENDBRANCH  22  23
ENDBRANCH  10  22
ENDBRANCH   7  10
ENDBRANCH   5   6
BRANCH   5  29
ATOM     29  CB  GLN A   3       2.236  -1.203  -2.555  1.00  0.00     0.045 C 
BRANCH  29  30
ATOM     30  CG  GLN A   3       1.200  -0.581  -3.506  1.00  0.00     0.102 C 
BRANCH  30  31
ATOM     31  CD  GLN A   3       1.649   0.751  -4.037  1.00  0.00     0.217 C 
ATOM     32  NE2 GLN A   3       0.917   1.936  -3.730  1.00  0.00    -0.370 N 
ATOM     33  OE1 GLN A   3       2.680   0.822  -4.759  1.00  0.00    -0.275 OA
ATOM     34  H   UNL     1       1.241   2.863  -4.084  1.00  0.00     0.159 HD
ATOM     35  H   UNL     1       0.026   1.891  -3.183  1.00  0.00     0.159 HD
ENDBRANCH  30  31
ENDBRANCH  29  30
ENDBRANCH   5  29
ENDBRANCH   1   5
BRANCH   3  36
ATOM     36  CA  LEU A   4      -0.751   0.978   0.537  1.00  0.00     0.171 C 
BRANCH  36  37
ATOM     37  C   LEU A   4      -1.891   0.313  -0.186  1.00  0.00     0.243 C 
ATOM     38  N   ARG A   5      -2.638  -0.734   0.455  1.00  0.00    -0.343 N 
ATOM     39  O   LEU A   4      -2.193   0.690  -1.350  1.00  0.00    -0.273 OA
ATOM     40  H   UNL     1      -2.411  -0.970   1.447  1.00  0.00     0.164 HD
BRANCH  38  41
ATOM     41  CA  ARG A   5      -3.787  -1.394  -0.171  1.00  0.00     0.171 C 
BRANCH  41  42
ATOM     42  C   ARG A   5      -5.052  -0.806   0.397  1.00  0.00     0.243 C 
ATOM     43  N   GLN A   6      -5.879   0.041  -0.416  1.00  0.00    -0.341 N 
ATOM     44  O   ARG A   5      -5.362  -1.031   1.600  1.00  0.00    -0.273 OA
ATOM     45  H   UNL     1      -5.577   0.241  -1.394  1.00  0.00     0.164 HD
BRANCH  43  46
ATOM     46  CA  GLN A   6      -7.209   0.491   0.003  1.00  0.00     0.192 C 
BRANCH  46  47
ATOM     47  C   GLN A   6      -8.258  -0.321  -0.700  1.00  0.00     0.326 C 
ATOM     48  O   GLN A   6      -8.215  -0.479  -1.949  1.00  0.00    -0.250 OA
BRANCH  47  49
ATOM     49  OXT GLN A   6      -9.293  -0.889   0.034  1.00  0.00    -0.480 OA
ATOM     50  H   UNL     1     -10.018  -1.431  -0.419  1.00  0.00     0.296 HD
ENDBRANCH  47  49
ENDBRANCH  46  47
BRANCH  46  51
ATOM     51  CB  GLN A   6      -7.395   1.986  -0.308  1.00  0.00     0.047 C 
BRANCH  51  52
ATOM     52  CG  GLN A   6      -6.495   2.868   0.570  1.00  0.00     0.102 C 
BRANCH  52  53
ATOM     53  CD  GLN A   6      -6.622   4.322   0.209  1.00  0.00     0.217 C 
ATOM     54  NE2 GLN A   6      -5.462   5.151   0.140  1.00  0.00    -0.370 N 
ATOM     55  OE1 GLN A   6      -7.760   4.831   0.018  1.00  0.00    -0.275 OA
ATOM     56  H   UNL     1      -4.513   4.771   0.363  1.00  0.00     0.159 HD
ATOM     57  H   UNL     1      -5.549   6.160  -0.108  1.00  0.00     0.159 HD
ENDBRANCH  52  53
ENDBRANCH  51  52
ENDBRANCH  46  51
ENDBRANCH  43  46
ENDBRANCH  41  42
BRANCH  41  58
ATOM     58  CB  ARG A   5      -3.698  -2.917   0.067  1.00  0.00     0.037 C 
BRANCH  58  59
ATOM     59  CG  ARG A   5      -4.497  -3.757  -0.951  1.00  0.00     0.024 C 
BRANCH  59  60
ATOM     60  CD  ARG A   5      -6.020  -3.745  -0.742  1.00  0.00     0.116 C 
BRANCH  60  61
ATOM     61  NE  ARG A   5      -6.406  -4.360   0.529  1.00  0.00    -0.357 N 
ATOM     62  CZ  ARG A   5      -7.765  -4.436   0.992  1.00  0.00     0.185 C 
ATOM     63  NH2 ARG A   5      -8.033  -4.917   2.309  1.00  0.00    -0.370 N 
ATOM     64  H   UNL     1      -5.666  -4.765   1.147  1.00  0.00     0.163 HD
ATOM     65  H   UNL     1      -9.013  -5.002   2.658  1.00  0.00     0.159 HD
ATOM     66  H   UNL     1      -7.246  -5.183   2.943  1.00  0.00     0.159 HD
BRANCH  62  67
ATOM     67  NH1 ARG A   5      -8.761  -4.090   0.236  1.00  0.00    -0.270 NA
ATOM     68  H   UNL     1      -8.652  -3.736  -0.739  1.00  0.00     0.191 HD
ENDBRANCH  62  67
ENDBRANCH  60  61
ENDBRANCH  59  60
ENDBRANCH  58  59
ENDBRANCH  41  58
ENDBRANCH  38  41
ENDBRANCH  36  37
BRANCH  36  69
ATOM     69  CB  LEU A   4      -1.119   2.452   0.847  1.00  0.00     0.038 C 
BRANCH  69  70
ATOM     70  CG  LEU A   4      -0.277   3.139   1.953  1.00  0.00    -0.015 C 
ATOM     71  CD1 LEU A   4       1.214   3.240   1.611  1.00  0.00     0.007 C 
ATOM     72  CD2 LEU A   4      -0.477   2.494   3.331  1.00  0.00     0.007 C 
ENDBRANCH  69  70
ENDBRANCH  36  69
ENDBRANCH   3  36
TORSDOF 30
