REMARK SMILES CC(C)C[C@H](NC(=O)[C@H](Cc1ccccc1)NC(=O)[C@H](Cc1c[nH]cn1)NC(=O)[C@@H](N)CO)C(=O)N[C@@H](CCCNC(=N)N)C(=O)N[C@@H](CC(N)=O)C(=O)O
REMARK SMILES IDX 7 1 8 2 6 3 9 5 17 6 18 7 19 8 20 10 27 11 28 12 29 13 30 15
REMARK SMILES IDX 31 16 32 19 33 20 21 22 22 23 26 24 23 25 25 26 24 27 10 29
REMARK SMILES IDX 11 30 12 31 16 32 13 33 15 34 14 35 5 36 34 37 36 38 35 39
REMARK SMILES IDX 37 41 45 42 47 43 46 44 48 46 53 47 54 48 55 49 49 51 50 52
REMARK SMILES IDX 51 53 52 54 38 57 39 58 40 59 41 60 42 61 44 62 43 66 4 68
REMARK SMILES IDX 2 69 1 70 3 71
REMARK H PARENT 6 4 17 9 27 14 31 17 31 18 33 21 24 28 36 40 47 45 55 50 51 55
REMARK H PARENT 51 56 41 63 44 64 44 65 43 67
ROOT
ATOM      1  C   PHE A   3      20.040  10.089  -6.462  1.00  0.00     0.243 C 
ATOM      2  O   PHE A   3      20.152   9.170  -5.604  1.00  0.00    -0.273 OA
ATOM      3  N   LEU A   4      20.563   9.924  -7.771  1.00  0.00    -0.343 N 
ATOM      4  H   UNL     1      20.400  10.666  -8.490  1.00  0.00     0.164 HD
ENDROOT
BRANCH   1   5
ATOM      5  CA  PHE A   3      19.337  11.361  -6.126  1.00  0.00     0.175 C 
BRANCH   5   6
ATOM      6  N   PHE A   3      18.081  11.037  -5.492  1.00  0.00    -0.342 N 
ATOM      7  C   HIS A   2      16.876  11.743  -5.741  1.00  0.00     0.243 C 
ATOM      8  O   HIS A   2      16.888  12.785  -6.455  1.00  0.00    -0.273 OA
ATOM      9  H   UNL     1      18.152  10.454  -4.632  1.00  0.00     0.164 HD
BRANCH   7  10
ATOM     10  CA  HIS A   2      15.626  11.284  -5.040  1.00  0.00     0.177 C 
BRANCH  10  11
ATOM     11  N   HIS A   2      14.443  11.729  -5.761  1.00  0.00    -0.342 N 
ATOM     12  C   SER A   1      13.915  13.044  -5.631  1.00  0.00     0.239 C 
ATOM     13  O   SER A   1      14.451  13.860  -4.832  1.00  0.00    -0.273 OA
ATOM     14  H   UNL     1      13.862  11.001  -6.229  1.00  0.00     0.164 HD
BRANCH  12  15
ATOM     15  CA  SER A   1      12.662  13.412  -6.388  1.00  0.00     0.167 C 
BRANCH  15  16
ATOM     16  N   SER A   1      12.460  14.863  -6.395  1.00  0.00    -0.318 NA
ATOM     17  H   UNL     1      13.322  15.336  -6.753  1.00  0.00     0.119 HD
ATOM     18  H   UNL     1      12.294  15.191  -5.416  1.00  0.00     0.119 HD
ENDBRANCH  15  16
BRANCH  15  19
ATOM     19  CB  SER A   1      12.691  12.892  -7.843  1.00  0.00     0.184 C 
BRANCH  19  20
ATOM     20  OG  SER A   1      11.436  13.051  -8.444  1.00  0.00    -0.394 OA
ATOM     21  H   UNL     1      11.380  13.995  -8.746  1.00  0.00     0.210 HD
ENDBRANCH  19  20
ENDBRANCH  15  19
ENDBRANCH  12  15
ENDBRANCH  10  11
BRANCH  10  22
ATOM     22  CB  HIS A   2      15.583   9.739  -4.913  1.00  0.00     0.093 C 
BRANCH  22  23
ATOM     23  CG  HIS A   2      14.416   9.289  -4.098  1.00  0.00     0.061 A 
ATOM     24  ND1 HIS A   2      13.292   8.756  -4.618  1.00  0.00    -0.242 NA
ATOM     25  CD2 HIS A   2      14.293   9.399  -2.730  1.00  0.00     0.107 A 
ATOM     26  CE1 HIS A   2      12.507   8.543  -3.540  1.00  0.00     0.196 A 
ATOM     27  NE2 HIS A   2      13.087   8.923  -2.386  1.00  0.00    -0.351 N 
ATOM     28  H   UNL     1      12.682   8.866  -1.426  1.00  0.00     0.167 HD
ENDBRANCH  22  23
ENDBRANCH  10  22
ENDBRANCH   7  10
ENDBRANCH   5   6
BRANCH   5  29
ATOM     29  CB  PHE A   3      20.185  12.254  -5.204  1.00  0.00     0.070 C 
BRANCH  29  30
ATOM     30  CG  PHE A   3      20.386  11.685  -3.815  1.00  0.00    -0.045 A 
ATOM     31  CD1 PHE A   3      21.440  10.796  -3.547  1.00  0.00     0.004 A 
ATOM     32  CD2 PHE A   3      19.481  12.006  -2.787  1.00  0.00     0.004 A 
ATOM     33  CE1 PHE A   3      21.552  10.197  -2.289  1.00  0.00     0.000 A 
ATOM     34  CE2 PHE A   3      19.615  11.427  -1.522  1.00  0.00     0.000 A 
ATOM     35  CZ  PHE A   3      20.645  10.517  -1.275  1.00  0.00     0.000 A 
ENDBRANCH  29  30
ENDBRANCH   5  29
ENDBRANCH   1   5
BRANCH   3  36
ATOM     36  CA  LEU A   4      21.347   8.762  -8.138  1.00  0.00     0.171 C 
BRANCH  36  37
ATOM     37  C   LEU A   4      22.713   9.217  -8.520  1.00  0.00     0.243 C 
ATOM     38  N   ARG A   5      23.822   8.720  -7.785  1.00  0.00    -0.343 N 
ATOM     39  O   LEU A   4      22.877  10.033  -9.468  1.00  0.00    -0.273 OA
ATOM     40  H   UNL     1      23.666   8.031  -7.014  1.00  0.00     0.164 HD
BRANCH  38  41
ATOM     41  CA  ARG A   5      25.185   9.122  -8.073  1.00  0.00     0.171 C 
BRANCH  41  42
ATOM     42  C   ARG A   5      25.899   7.968  -8.685  1.00  0.00     0.243 C 
ATOM     43  N   ASN A   6      25.913   7.864 -10.102  1.00  0.00    -0.341 N 
ATOM     44  O   ARG A   5      26.447   7.087  -7.969  1.00  0.00    -0.273 OA
ATOM     45  H   UNL     1      25.488   8.647 -10.651  1.00  0.00     0.164 HD
BRANCH  43  46
ATOM     46  CA  ASN A   6      26.542   6.751 -10.804  1.00  0.00     0.201 C 
BRANCH  46  47
ATOM     47  C   ASN A   6      27.993   6.642 -10.416  1.00  0.00     0.326 C 
ATOM     48  O   ASN A   6      28.794   7.579 -10.677  1.00  0.00    -0.250 OA
BRANCH  47  49
ATOM     49  OXT ASN A   6      28.451   5.499  -9.768  1.00  0.00    -0.480 OA
ATOM     50  H   UNL     1      29.424   5.409  -9.499  1.00  0.00     0.296 HD
ENDBRANCH  47  49
ENDBRANCH  46  47
BRANCH  46  51
ATOM     51  CB  ASN A   6      26.424   6.947 -12.323  1.00  0.00     0.136 C 
BRANCH  51  52
ATOM     52  CG  ASN A   6      25.010   7.180 -12.773  1.00  0.00     0.220 C 
ATOM     53  ND2 ASN A   6      24.753   8.090 -13.833  1.00  0.00    -0.370 N 
ATOM     54  OD1 ASN A   6      24.053   6.558 -12.243  1.00  0.00    -0.275 OA
ATOM     55  H   UNL     1      23.774   8.258 -14.156  1.00  0.00     0.159 HD
ATOM     56  H   UNL     1      25.533   8.600 -14.306  1.00  0.00     0.159 HD
ENDBRANCH  51  52
ENDBRANCH  46  51
ENDBRANCH  43  46
ENDBRANCH  41  42
BRANCH  41  57
ATOM     57  CB  ARG A   5      25.863   9.605  -6.795  1.00  0.00     0.037 C 
BRANCH  57  58
ATOM     58  CG  ARG A   5      25.165  10.859  -6.271  1.00  0.00     0.024 C 
BRANCH  58  59
ATOM     59  CD  ARG A   5      25.839  11.391  -5.014  1.00  0.00     0.116 C 
BRANCH  59  60
ATOM     60  NE  ARG A   5      25.379  10.685  -3.821  1.00  0.00    -0.357 N 
ATOM     61  CZ  ARG A   5      25.471  11.282  -2.526  1.00  0.00     0.185 C 
ATOM     62  NH2 ARG A   5      26.097  12.550  -2.353  1.00  0.00    -0.370 N 
ATOM     63  H   UNL     1      24.903   9.758  -3.917  1.00  0.00     0.163 HD
ATOM     64  H   UNL     1      26.675  12.998  -3.097  1.00  0.00     0.159 HD
ATOM     65  H   UNL     1      26.077  13.014  -1.418  1.00  0.00     0.159 HD
BRANCH  61  66
ATOM     66  NH1 ARG A   5      24.987  10.672  -1.492  1.00  0.00    -0.270 NA
ATOM     67  H   UNL     1      24.542   9.731  -1.565  1.00  0.00     0.191 HD
ENDBRANCH  61  66
ENDBRANCH  59  60
ENDBRANCH  58  59
ENDBRANCH  57  58
ENDBRANCH  41  57
ENDBRANCH  38  41
ENDBRANCH  36  37
BRANCH  36  68
ATOM     68  CB  LEU A   4      20.654   8.000  -9.271  1.00  0.00     0.038 C 
BRANCH  68  69
ATOM     69  CG  LEU A   4      21.448   6.772  -9.768  1.00  0.00    -0.015 C 
ATOM     70  CD1 LEU A   4      21.762   5.779  -8.639  1.00  0.00     0.007 C 
ATOM     71  CD2 LEU A   4      20.661   6.068 -10.877  1.00  0.00     0.007 C 
ENDBRANCH  68  69
ENDBRANCH  36  68
ENDBRANCH   3  36
TORSDOF 28
