REMARK SMILES CC(C)C[C@H](NC(=O)[C@H](C)NC(=O)[C@H](Cc1ccccc1)NC(=O)CN)C(=O)N[C@@H](CCCNC(=N)N)C(=O)N[C@@H](CC(N)=O)C(=O)O
REMARK SMILES IDX 5 1 6 2 7 3 8 4 9 6 10 7 11 8 12 9 13 10 14 12 22 13 23 14
REMARK SMILES IDX 24 15 25 17 26 18 15 21 16 22 17 23 21 24 18 25 20 26 19 27
REMARK SMILES IDX 27 28 29 29 28 30 30 32 38 33 40 34 39 35 41 37 46 38 47 39
REMARK SMILES IDX 48 40 42 42 43 43 44 44 45 45 31 48 32 49 33 50 34 51 35 52
REMARK SMILES IDX 37 53 36 57 4 59 2 60 1 61 3 62
REMARK H PARENT 6 5 11 11 22 16 26 19 26 20 29 31 40 36 48 41 44 46 44 47
REMARK H PARENT 34 54 37 55 37 56 36 58
ROOT
ATOM      1  CA  LEU A   4      21.346   8.759  -8.136  1.00  0.00     0.171 C 
ENDROOT
BRANCH   1   2
ATOM      2  N   LEU A   4      20.560   9.920  -7.771  1.00  0.00    -0.343 N 
ATOM      3  C   ALA A   3      20.046  10.100  -6.460  1.00  0.00     0.242 C 
ATOM      4  O   ALA A   3      20.174   9.198  -5.585  1.00  0.00    -0.273 OA
ATOM      5  H   UNL     1      20.391  10.655  -8.496  1.00  0.00     0.164 HD
BRANCH   3   6
ATOM      6  CA  ALA A   3      19.341  11.373  -6.144  1.00  0.00     0.168 C 
ATOM      7  CB  ALA A   3      20.179  12.245  -5.218  1.00  0.00     0.041 C 
BRANCH   6   8
ATOM      8  N   ALA A   3      18.093  11.059  -5.494  1.00  0.00    -0.343 N 
ATOM      9  C   PHE A   2      16.890  11.754  -5.778  1.00  0.00     0.243 C 
ATOM     10  O   PHE A   2      16.909  12.797  -6.489  1.00  0.00    -0.273 OA
ATOM     11  H   UNL     1      18.180  10.555  -4.584  1.00  0.00     0.164 HD
BRANCH   9  12
ATOM     12  CA  PHE A   2      15.643  11.320  -5.084  1.00  0.00     0.175 C 
BRANCH  12  13
ATOM     13  N   PHE A   2      14.465  11.768  -5.818  1.00  0.00    -0.343 N 
ATOM     14  C   GLY A   1      13.902  13.059  -5.618  1.00  0.00     0.234 C 
ATOM     15  O   GLY A   1      14.430  13.863  -4.802  1.00  0.00    -0.274 OA
ATOM     16  H   UNL     1      14.070  11.160  -6.571  1.00  0.00     0.164 HD
BRANCH  14  17
ATOM     17  CA  GLY A   1      12.654  13.427  -6.356  1.00  0.00     0.178 C 
BRANCH  17  18
ATOM     18  N   GLY A   1      12.487  14.874  -6.401  1.00  0.00    -0.322 NA
ATOM     19  H   UNL     1      11.566  15.074  -6.853  1.00  0.00     0.119 HD
ATOM     20  H   UNL     1      13.221  15.268  -7.035  1.00  0.00     0.119 HD
ENDBRANCH  17  18
ENDBRANCH  14  17
ENDBRANCH  12  13
BRANCH  12  21
ATOM     21  CB  PHE A   2      15.595   9.783  -4.920  1.00  0.00     0.070 C 
BRANCH  21  22
ATOM     22  CG  PHE A   2      14.439   9.295  -4.101  1.00  0.00    -0.045 A 
ATOM     23  CD1 PHE A   2      13.904  10.051  -3.040  1.00  0.00     0.004 A 
ATOM     24  CD2 PHE A   2      13.968   7.992  -4.313  1.00  0.00     0.004 A 
ATOM     25  CE1 PHE A   2      12.873   9.538  -2.261  1.00  0.00     0.000 A 
ATOM     26  CE2 PHE A   2      12.942   7.478  -3.520  1.00  0.00     0.000 A 
ATOM     27  CZ  PHE A   2      12.390   8.254  -2.501  1.00  0.00     0.000 A 
ENDBRANCH  21  22
ENDBRANCH  12  21
ENDBRANCH   9  12
ENDBRANCH   6   8
ENDBRANCH   3   6
ENDBRANCH   1   2
BRANCH   1  28
ATOM     28  C   LEU A   4      22.712   9.216  -8.518  1.00  0.00     0.243 C 
ATOM     29  N   ARG A   5      23.822   8.720  -7.784  1.00  0.00    -0.343 N 
ATOM     30  O   LEU A   4      22.875  10.032  -9.466  1.00  0.00    -0.273 OA
ATOM     31  H   UNL     1      23.667   8.029  -7.015  1.00  0.00     0.164 HD
BRANCH  29  32
ATOM     32  CA  ARG A   5      25.185   9.122  -8.073  1.00  0.00     0.171 C 
BRANCH  32  33
ATOM     33  C   ARG A   5      25.899   7.968  -8.686  1.00  0.00     0.243 C 
ATOM     34  N   ASN A   6      25.913   7.864 -10.102  1.00  0.00    -0.341 N 
ATOM     35  O   ARG A   5      26.447   7.087  -7.969  1.00  0.00    -0.273 OA
ATOM     36  H   UNL     1      25.489   8.647 -10.651  1.00  0.00     0.164 HD
BRANCH  34  37
ATOM     37  CA  ASN A   6      26.542   6.751 -10.804  1.00  0.00     0.201 C 
BRANCH  37  38
ATOM     38  C   ASN A   6      27.993   6.642 -10.416  1.00  0.00     0.326 C 
ATOM     39  O   ASN A   6      28.794   7.579 -10.677  1.00  0.00    -0.250 OA
BRANCH  38  40
ATOM     40  OXT ASN A   6      28.451   5.499  -9.768  1.00  0.00    -0.480 OA
ATOM     41  H   UNL     1      29.424   5.409  -9.499  1.00  0.00     0.296 HD
ENDBRANCH  38  40
ENDBRANCH  37  38
BRANCH  37  42
ATOM     42  CB  ASN A   6      26.424   6.946 -12.323  1.00  0.00     0.136 C 
BRANCH  42  43
ATOM     43  CG  ASN A   6      25.010   7.180 -12.773  1.00  0.00     0.220 C 
ATOM     44  ND2 ASN A   6      24.753   8.090 -13.833  1.00  0.00    -0.370 N 
ATOM     45  OD1 ASN A   6      24.053   6.558 -12.243  1.00  0.00    -0.275 OA
ATOM     46  H   UNL     1      25.533   8.600 -14.306  1.00  0.00     0.159 HD
ATOM     47  H   UNL     1      23.775   8.258 -14.156  1.00  0.00     0.159 HD
ENDBRANCH  42  43
ENDBRANCH  37  42
ENDBRANCH  34  37
ENDBRANCH  32  33
BRANCH  32  48
ATOM     48  CB  ARG A   5      25.863   9.605  -6.796  1.00  0.00     0.037 C 
BRANCH  48  49
ATOM     49  CG  ARG A   5      25.167  10.861  -6.272  1.00  0.00     0.024 C 
BRANCH  49  50
ATOM     50  CD  ARG A   5      25.842  11.391  -5.015  1.00  0.00     0.116 C 
BRANCH  50  51
ATOM     51  NE  ARG A   5      25.378  10.685  -3.823  1.00  0.00    -0.357 N 
ATOM     52  CZ  ARG A   5      25.469  11.279  -2.527  1.00  0.00     0.185 C 
ATOM     53  NH2 ARG A   5      26.106  12.541  -2.350  1.00  0.00    -0.370 N 
ATOM     54  H   UNL     1      24.904   9.757  -3.922  1.00  0.00     0.163 HD
ATOM     55  H   UNL     1      26.693  12.983  -3.090  1.00  0.00     0.159 HD
ATOM     56  H   UNL     1      26.083  13.006  -1.415  1.00  0.00     0.159 HD
BRANCH  52  57
ATOM     57  NH1 ARG A   5      24.959  10.678  -1.500  1.00  0.00    -0.270 NA
ATOM     58  H   UNL     1      24.478   9.755  -1.584  1.00  0.00     0.191 HD
ENDBRANCH  52  57
ENDBRANCH  50  51
ENDBRANCH  49  50
ENDBRANCH  48  49
ENDBRANCH  32  48
ENDBRANCH  29  32
ENDBRANCH   1  28
BRANCH   1  59
ATOM     59  CB  LEU A   4      20.654   7.998  -9.269  1.00  0.00     0.038 C 
BRANCH  59  60
ATOM     60  CG  LEU A   4      21.448   6.771  -9.767  1.00  0.00    -0.015 C 
ATOM     61  CD1 LEU A   4      21.762   5.778  -8.639  1.00  0.00     0.007 C 
ATOM     62  CD2 LEU A   4      20.662   6.068 -10.877  1.00  0.00     0.007 C 
ENDBRANCH  59  60
ENDBRANCH   1  59
TORSDOF 24
