REMARK SMILES CC(C)C[C@H](NC(=O)[C@H](Cc1c[nH]cn1)NC(=O)[C@H](Cc1ccccc1)NC(=O)[C@@H](N)CO)C(=O)N[C@@H](CO)C(=O)N[C@@H](CC(N)=O)C(=O)O
REMARK SMILES IDX 7 1 8 2 6 3 9 5 16 6 17 7 18 8 19 10 27 11 28 12 29 13 30 15
REMARK SMILES IDX 31 16 32 19 33 20 20 22 21 23 22 24 26 25 23 26 25 27 24 28
REMARK SMILES IDX 10 29 11 30 15 31 12 32 14 33 13 34 5 36 34 37 36 38 35 39
REMARK SMILES IDX 37 41 40 42 42 43 41 44 43 46 48 47 49 48 50 49 44 51 45 52
REMARK SMILES IDX 46 53 47 54 38 57 39 58 4 60 2 61 1 62 3 63
REMARK H PARENT 6 4 16 9 27 14 31 17 31 18 33 21 13 35 36 40 42 45 50 50 46 55
REMARK H PARENT 46 56 39 59
ROOT
ATOM      1  C   HIS A   3      20.052  10.096  -6.459  1.00  0.00     0.243 C 
ATOM      2  O   HIS A   3      20.170   9.183  -5.594  1.00  0.00    -0.273 OA
ATOM      3  N   LEU A   4      20.564   9.921  -7.771  1.00  0.00    -0.342 N 
ATOM      4  H   UNL     1      20.396  10.658  -8.493  1.00  0.00     0.164 HD
ENDROOT
BRANCH   1   5
ATOM      5  CA  HIS A   3      19.346  11.367  -6.132  1.00  0.00     0.177 C 
BRANCH   5   6
ATOM      6  N   HIS A   3      18.088  11.043  -5.511  1.00  0.00    -0.342 N 
ATOM      7  C   PHE A   2      16.887  11.749  -5.775  1.00  0.00     0.243 C 
ATOM      8  O   PHE A   2      16.902  12.794  -6.482  1.00  0.00    -0.273 OA
ATOM      9  H   UNL     1      18.163  10.477  -4.640  1.00  0.00     0.164 HD
BRANCH   7  10
ATOM     10  CA  PHE A   2      15.651  11.313  -5.060  1.00  0.00     0.175 C 
BRANCH  10  11
ATOM     11  N   PHE A   2      14.453  11.740  -5.769  1.00  0.00    -0.343 N 
ATOM     12  C   SER A   1      13.915  13.051  -5.636  1.00  0.00     0.239 C 
ATOM     13  O   SER A   1      14.449  13.870  -4.839  1.00  0.00    -0.273 OA
ATOM     14  H   UNL     1      13.861  11.001  -6.208  1.00  0.00     0.164 HD
BRANCH  12  15
ATOM     15  CA  SER A   1      12.655  13.410  -6.383  1.00  0.00     0.167 C 
BRANCH  15  16
ATOM     16  N   SER A   1      12.467  14.863  -6.382  1.00  0.00    -0.318 NA
ATOM     17  H   UNL     1      11.581  15.087  -6.890  1.00  0.00     0.119 HD
ATOM     18  H   UNL     1      12.304  15.174  -5.396  1.00  0.00     0.119 HD
ENDBRANCH  15  16
BRANCH  15  19
ATOM     19  CB  SER A   1      12.695  12.894  -7.842  1.00  0.00     0.184 C 
BRANCH  19  20
ATOM     20  OG  SER A   1      11.440  13.037  -8.449  1.00  0.00    -0.394 OA
ATOM     21  H   UNL     1      10.855  12.333  -8.065  1.00  0.00     0.210 HD
ENDBRANCH  19  20
ENDBRANCH  15  19
ENDBRANCH  12  15
ENDBRANCH  10  11
BRANCH  10  22
ATOM     22  CB  PHE A   2      15.612   9.774  -4.889  1.00  0.00     0.070 C 
BRANCH  22  23
ATOM     23  CG  PHE A   2      14.442   9.290  -4.091  1.00  0.00    -0.045 A 
ATOM     24  CD1 PHE A   2      13.902  10.047  -3.033  1.00  0.00     0.004 A 
ATOM     25  CD2 PHE A   2      13.967   7.990  -4.310  1.00  0.00     0.004 A 
ATOM     26  CE1 PHE A   2      12.868   9.536  -2.260  1.00  0.00     0.000 A 
ATOM     27  CE2 PHE A   2      12.939   7.477  -3.521  1.00  0.00     0.000 A 
ATOM     28  CZ  PHE A   2      12.386   8.252  -2.501  1.00  0.00     0.000 A 
ENDBRANCH  22  23
ENDBRANCH  10  22
ENDBRANCH   7  10
ENDBRANCH   5   6
BRANCH   5  29
ATOM     29  CB  HIS A   3      20.175  12.264  -5.201  1.00  0.00     0.093 C 
BRANCH  29  30
ATOM     30  CG  HIS A   3      20.415  11.674  -3.835  1.00  0.00     0.061 A 
ATOM     31  ND1 HIS A   3      21.466  10.887  -3.527  1.00  0.00    -0.242 NA
ATOM     32  CD2 HIS A   3      19.609  11.833  -2.729  1.00  0.00     0.107 A 
ATOM     33  CE1 HIS A   3      21.272  10.583  -2.226  1.00  0.00     0.196 A 
ATOM     34  NE2 HIS A   3      20.156  11.142  -1.719  1.00  0.00    -0.351 N 
ATOM     35  H   UNL     1      19.791  11.053  -0.745  1.00  0.00     0.167 HD
ENDBRANCH  29  30
ENDBRANCH   5  29
ENDBRANCH   1   5
BRANCH   3  36
ATOM     36  CA  LEU A   4      21.350   8.760  -8.137  1.00  0.00     0.171 C 
BRANCH  36  37
ATOM     37  C   LEU A   4      22.716   9.219  -8.516  1.00  0.00     0.243 C 
ATOM     38  N   SER A   5      23.826   8.746  -7.765  1.00  0.00    -0.340 N 
ATOM     39  O   LEU A   4      22.879  10.029  -9.470  1.00  0.00    -0.273 OA
ATOM     40  H   UNL     1      23.670   8.062  -6.990  1.00  0.00     0.164 HD
BRANCH  38  41
ATOM     41  CA  SER A   5      25.190   9.140  -8.062  1.00  0.00     0.197 C 
BRANCH  41  42
ATOM     42  C   SER A   5      25.898   7.978  -8.680  1.00  0.00     0.245 C 
ATOM     43  N   ASN A   6      25.910   7.872 -10.098  1.00  0.00    -0.340 N 
ATOM     44  O   SER A   5      26.443   7.094  -7.965  1.00  0.00    -0.273 OA
ATOM     45  H   UNL     1      25.486   8.654 -10.646  1.00  0.00     0.164 HD
BRANCH  43  46
ATOM     46  CA  ASN A   6      26.539   6.756 -10.800  1.00  0.00     0.201 C 
BRANCH  46  47
ATOM     47  C   ASN A   6      27.990   6.645 -10.412  1.00  0.00     0.326 C 
ATOM     48  O   ASN A   6      28.793   7.579 -10.677  1.00  0.00    -0.250 OA
BRANCH  47  49
ATOM     49  OXT ASN A   6      28.446   5.502  -9.761  1.00  0.00    -0.480 OA
ATOM     50  H   UNL     1      29.418   5.411  -9.493  1.00  0.00     0.296 HD
ENDBRANCH  47  49
ENDBRANCH  46  47
BRANCH  46  51
ATOM     51  CB  ASN A   6      26.423   6.949 -12.320  1.00  0.00     0.136 C 
BRANCH  51  52
ATOM     52  CG  ASN A   6      25.009   7.182 -12.772  1.00  0.00     0.220 C 
ATOM     53  ND2 ASN A   6      24.753   8.090 -13.833  1.00  0.00    -0.370 N 
ATOM     54  OD1 ASN A   6      24.052   6.558 -12.243  1.00  0.00    -0.275 OA
ATOM     55  H   UNL     1      23.775   8.256 -14.158  1.00  0.00     0.159 HD
ATOM     56  H   UNL     1      25.533   8.600 -14.305  1.00  0.00     0.159 HD
ENDBRANCH  51  52
ENDBRANCH  46  51
ENDBRANCH  43  46
ENDBRANCH  41  42
BRANCH  41  57
ATOM     57  CB  SER A   5      25.877   9.626  -6.790  1.00  0.00     0.191 C 
BRANCH  57  58
ATOM     58  OG  SER A   5      25.216  10.759  -6.299  1.00  0.00    -0.394 OA
ATOM     59  H   UNL     1      25.700  11.025  -5.474  1.00  0.00     0.210 HD
ENDBRANCH  57  58
ENDBRANCH  41  57
ENDBRANCH  38  41
ENDBRANCH  36  37
BRANCH  36  60
ATOM     60  CB  LEU A   4      20.657   8.000  -9.271  1.00  0.00     0.038 C 
BRANCH  60  61
ATOM     61  CG  LEU A   4      21.450   6.772  -9.768  1.00  0.00    -0.015 C 
ATOM     62  CD1 LEU A   4      21.765   5.780  -8.638  1.00  0.00     0.007 C 
ATOM     63  CD2 LEU A   4      20.662   6.067 -10.876  1.00  0.00     0.007 C 
ENDBRANCH  60  61
ENDBRANCH  36  60
ENDBRANCH   3  36
TORSDOF 25
