REMARK SMILES CC(C)C[C@H](NC(=O)[C@H](Cc1ccccc1)NC(=O)[C@H](C)N)C(=O)N[C@@H](Cc1c[nH]cn1)C(=O)N[C@@H](CCCNC(=N)N)C(=O)N[C@@H](CC(N)=O)C(=O)O
REMARK SMILES IDX 26 1 25 2 23 3 24 4 5 6 6 7 7 8 8 9 9 11 17 12 18 13 19 14
REMARK SMILES IDX 20 16 21 17 22 18 10 21 11 22 12 23 16 24 13 25 15 26 14 27
REMARK SMILES IDX 4 28 2 29 1 30 3 31 33 32 35 33 34 34 36 36 44 37 46 38
REMARK SMILES IDX 45 39 47 41 52 42 53 43 54 44 48 46 49 47 50 48 51 49 37 52
REMARK SMILES IDX 38 53 39 54 40 55 41 56 43 57 42 61 27 63 28 64 32 65 29 66
REMARK SMILES IDX 31 67 30 68
REMARK H PARENT 25 5 6 10 17 15 22 19 22 20 35 35 46 40 54 45 50 50 50 51
REMARK H PARENT 40 58 43 59 43 60 42 62 30 69
ROOT
ATOM      1  CA  HIS A   4      -0.678   1.764  -1.048  1.00  0.00     0.177 C 
ENDROOT
BRANCH   1   2
ATOM      2  N   HIS A   4       0.455   0.870  -1.324  1.00  0.00    -0.342 N 
ATOM      3  C   LEU A   3       1.242   0.282  -0.278  1.00  0.00     0.243 C 
ATOM      4  O   LEU A   3       1.040   0.610   0.923  1.00  0.00    -0.273 OA
ATOM      5  H   UNL     1       0.660   0.590  -2.310  1.00  0.00     0.164 HD
BRANCH   3   6
ATOM      6  CA  LEU A   3       2.328  -0.709  -0.630  1.00  0.00     0.171 C 
BRANCH   6   7
ATOM      7  N   LEU A   3       3.254  -0.908   0.493  1.00  0.00    -0.343 N 
ATOM      8  C   PHE A   2       4.667  -0.684   0.387  1.00  0.00     0.243 C 
ATOM      9  O   PHE A   2       5.172  -0.327  -0.713  1.00  0.00    -0.273 OA
ATOM     10  H   UNL     1       2.870  -1.207   1.418  1.00  0.00     0.164 HD
BRANCH   8  11
ATOM     11  CA  PHE A   2       5.547  -0.833   1.605  1.00  0.00     0.175 C 
BRANCH  11  12
ATOM     12  N   PHE A   2       6.961  -0.877   1.214  1.00  0.00    -0.343 N 
ATOM     13  C   ALA A   1       7.667  -2.108   1.001  1.00  0.00     0.237 C 
ATOM     14  O   ALA A   1       7.101  -3.214   1.221  1.00  0.00    -0.273 OA
ATOM     15  H   UNL     1       7.420   0.005   0.902  1.00  0.00     0.164 HD
BRANCH  13  16
ATOM     16  CA  ALA A   1       9.080  -2.089   0.480  1.00  0.00     0.138 C 
ATOM     17  CB  ALA A   1       9.109  -2.586  -0.966  1.00  0.00     0.035 C 
BRANCH  16  18
ATOM     18  N   ALA A   1       9.934  -2.930   1.318  1.00  0.00    -0.320 NA
ATOM     19  H   UNL     1       9.915  -2.544   2.292  1.00  0.00     0.119 HD
ATOM     20  H   UNL     1      10.923  -2.826   0.989  1.00  0.00     0.119 HD
ENDBRANCH  16  18
ENDBRANCH  13  16
ENDBRANCH  11  12
BRANCH  11  21
ATOM     21  CB  PHE A   2       5.298   0.282   2.643  1.00  0.00     0.070 C 
BRANCH  21  22
ATOM     22  CG  PHE A   2       5.509   1.676   2.098  1.00  0.00    -0.045 A 
ATOM     23  CD1 PHE A   2       6.755   2.313   2.233  1.00  0.00     0.004 A 
ATOM     24  CD2 PHE A   2       4.461   2.350   1.447  1.00  0.00     0.004 A 
ATOM     25  CE1 PHE A   2       6.949   3.598   1.715  1.00  0.00     0.000 A 
ATOM     26  CE2 PHE A   2       4.657   3.637   0.937  1.00  0.00     0.000 A 
ATOM     27  CZ  PHE A   2       5.901   4.261   1.072  1.00  0.00     0.000 A 
ENDBRANCH  21  22
ENDBRANCH  11  21
ENDBRANCH   8  11
ENDBRANCH   6   7
BRANCH   6  28
ATOM     28  CB  LEU A   3       1.772  -2.056  -1.150  1.00  0.00     0.038 C 
BRANCH  28  29
ATOM     29  CG  LEU A   3       1.279  -3.068  -0.083  1.00  0.00    -0.015 C 
ATOM     30  CD1 LEU A   3       0.962  -4.410  -0.756  1.00  0.00     0.007 C 
ATOM     31  CD2 LEU A   3       0.040  -2.573   0.677  1.00  0.00     0.007 C 
ENDBRANCH  28  29
ENDBRANCH   6  28
ENDBRANCH   3   6
ENDBRANCH   1   2
BRANCH   1  32
ATOM     32  C   HIS A   4      -1.906   0.969  -0.682  1.00  0.00     0.243 C 
ATOM     33  N   ARG A   5      -2.913   1.553   0.158  1.00  0.00    -0.343 N 
ATOM     34  O   HIS A   4      -2.074  -0.185  -1.163  1.00  0.00    -0.273 OA
ATOM     35  H   UNL     1      -2.782   2.540   0.480  1.00  0.00     0.164 HD
BRANCH  33  36
ATOM     36  CA  ARG A   5      -4.203   0.897   0.403  1.00  0.00     0.171 C 
BRANCH  36  37
ATOM     37  C   ARG A   5      -5.151   1.156  -0.738  1.00  0.00     0.243 C 
ATOM     38  N   ASN A   6      -6.309   0.320  -0.901  1.00  0.00    -0.341 N 
ATOM     39  O   ARG A   5      -4.946   2.124  -1.518  1.00  0.00    -0.273 OA
ATOM     40  H   UNL     1      -6.442  -0.466  -0.227  1.00  0.00     0.164 HD
BRANCH  38  41
ATOM     41  CA  ASN A   6      -7.345   0.505  -1.930  1.00  0.00     0.201 C 
BRANCH  41  42
ATOM     42  C   ASN A   6      -6.828   0.187  -3.309  1.00  0.00     0.326 C 
ATOM     43  O   ASN A   6      -5.595   0.181  -3.553  1.00  0.00    -0.250 OA
BRANCH  42  44
ATOM     44  OXT ASN A   6      -7.732  -0.083  -4.332  1.00  0.00    -0.480 OA
ATOM     45  H   UNL     1      -7.410  -0.315  -5.264  1.00  0.00     0.296 HD
ENDBRANCH  42  44
ENDBRANCH  41  42
BRANCH  41  46
ATOM     46  CB  ASN A   6      -7.970   1.912  -1.885  1.00  0.00     0.136 C 
BRANCH  46  47
ATOM     47  CG  ASN A   6      -8.423   2.274  -0.499  1.00  0.00     0.220 C 
ATOM     48  ND2 ASN A   6      -7.707   3.240   0.270  1.00  0.00    -0.370 N 
ATOM     49  OD1 ASN A   6      -9.434   1.709  -0.002  1.00  0.00    -0.275 OA
ATOM     50  H   UNL     1      -8.031   3.493   1.230  1.00  0.00     0.159 HD
ATOM     51  H   UNL     1      -6.847   3.699  -0.109  1.00  0.00     0.159 HD
ENDBRANCH  46  47
ENDBRANCH  41  46
ENDBRANCH  38  41
ENDBRANCH  36  37
BRANCH  36  52
ATOM     52  CB  ARG A   5      -4.822   1.392   1.727  1.00  0.00     0.037 C 
BRANCH  52  53
ATOM     53  CG  ARG A   5      -3.935   1.148   2.968  1.00  0.00     0.024 C 
BRANCH  53  54
ATOM     54  CD  ARG A   5      -3.508  -0.317   3.168  1.00  0.00     0.116 C 
BRANCH  54  55
ATOM     55  NE  ARG A   5      -4.661  -1.215   3.250  1.00  0.00    -0.357 N 
ATOM     56  CZ  ARG A   5      -4.531  -2.638   3.135  1.00  0.00     0.185 C 
ATOM     57  NH2 ARG A   5      -5.700  -3.460   3.140  1.00  0.00    -0.370 N 
ATOM     58  H   UNL     1      -5.617  -0.819   3.400  1.00  0.00     0.163 HD
ATOM     59  H   UNL     1      -5.629  -4.498   3.051  1.00  0.00     0.159 HD
ATOM     60  H   UNL     1      -6.647  -3.029   3.232  1.00  0.00     0.159 HD
BRANCH  56  61
ATOM     61  NH1 ARG A   5      -3.359  -3.178   3.024  1.00  0.00    -0.270 NA
ATOM     62  H   UNL     1      -3.237  -4.212   2.937  1.00  0.00     0.191 HD
ENDBRANCH  56  61
ENDBRANCH  54  55
ENDBRANCH  53  54
ENDBRANCH  52  53
ENDBRANCH  36  52
ENDBRANCH  33  36
ENDBRANCH   1  32
BRANCH   1  63
ATOM     63  CB  HIS A   4      -0.952   2.707  -2.238  1.00  0.00     0.093 C 
BRANCH  63  64
ATOM     64  CG  HIS A   4      -1.389   1.990  -3.483  1.00  0.00     0.061 A 
ATOM     65  ND1 HIS A   4      -2.643   1.546  -3.696  1.00  0.00    -0.242 NA
ATOM     66  CD2 HIS A   4      -0.589   1.665  -4.557  1.00  0.00     0.107 A 
ATOM     67  CE1 HIS A   4      -2.577   0.958  -4.909  1.00  0.00     0.196 A 
ATOM     68  NE2 HIS A   4      -1.347   1.016  -5.452  1.00  0.00    -0.351 N 
ATOM     69  H   UNL     1      -1.046   0.631  -6.374  1.00  0.00     0.167 HD
ENDBRANCH  63  64
ENDBRANCH   1  63
TORSDOF 26
