REMARK SMILES CC(C)C[C@H](NC(=O)[C@H](CC(=O)O)NC(=O)[C@@H](N)CO)C(=O)N[C@@H](C)C(=O)N[C@@H](CCCNC(=N)N)C(=O)N[C@@H](CC(N)=O)C(=O)O
REMARK SMILES IDX 21 1 22 2 23 3 5 5 6 6 7 7 8 8 9 10 14 11 15 12 16 13 17 15
REMARK SMILES IDX 18 16 19 19 20 20 10 22 11 23 12 24 13 25 4 27 2 28 1 29
REMARK SMILES IDX 3 30 24 31 25 32 26 33 28 34 27 35 29 37 37 38 39 39 38 40
REMARK SMILES IDX 40 42 45 43 46 44 47 45 41 47 42 48 43 49 44 50 30 53 31 54
REMARK SMILES IDX 32 55 33 56 34 57 36 58 35 62
REMARK H PARENT 23 4 6 9 14 14 18 17 18 18 20 21 13 26 28 36 39 41 47 46 43 51
REMARK H PARENT 43 52 33 59 36 60 36 61 35 63
ROOT
ATOM      1  C   LEU A   3      20.061  10.080  -6.440  1.00  0.00     0.243 C 
ATOM      2  O   LEU A   3      20.202   9.180  -5.569  1.00  0.00    -0.273 OA
ATOM      3  N   ALA A   4      20.563   9.903  -7.759  1.00  0.00    -0.343 N 
ATOM      4  H   UNL     1      20.396  10.643  -8.479  1.00  0.00     0.164 HD
ENDROOT
BRANCH   1   5
ATOM      5  CA  LEU A   3      19.325  11.333  -6.128  1.00  0.00     0.171 C 
BRANCH   5   6
ATOM      6  N   LEU A   3      18.078  11.017  -5.486  1.00  0.00    -0.342 N 
ATOM      7  C   ASP A   2      16.875  11.735  -5.732  1.00  0.00     0.243 C 
ATOM      8  O   ASP A   2      16.892  12.778  -6.445  1.00  0.00    -0.273 OA
ATOM      9  H   UNL     1      18.145  10.377  -4.672  1.00  0.00     0.164 HD
BRANCH   7  10
ATOM     10  CA  ASP A   2      15.621  11.281  -5.034  1.00  0.00     0.182 C 
BRANCH  10  11
ATOM     11  N   ASP A   2      14.441  11.729  -5.761  1.00  0.00    -0.342 N 
ATOM     12  C   SER A   1      13.914  13.045  -5.635  1.00  0.00     0.239 C 
ATOM     13  O   SER A   1      14.454  13.863  -4.839  1.00  0.00    -0.273 OA
ATOM     14  H   UNL     1      13.852  11.001  -6.221  1.00  0.00     0.164 HD
BRANCH  12  15
ATOM     15  CA  SER A   1      12.656  13.410  -6.384  1.00  0.00     0.167 C 
BRANCH  15  16
ATOM     16  N   SER A   1      12.470  14.863  -6.379  1.00  0.00    -0.318 NA
ATOM     17  H   UNL     1      12.308  15.173  -5.393  1.00  0.00     0.119 HD
ATOM     18  H   UNL     1      11.584  15.090  -6.887  1.00  0.00     0.119 HD
ENDBRANCH  15  16
BRANCH  15  19
ATOM     19  CB  SER A   1      12.696  12.898  -7.844  1.00  0.00     0.184 C 
BRANCH  19  20
ATOM     20  OG  SER A   1      11.440  13.038  -8.449  1.00  0.00    -0.394 OA
ATOM     21  H   UNL     1      10.859  12.329  -8.067  1.00  0.00     0.210 HD
ENDBRANCH  19  20
ENDBRANCH  15  19
ENDBRANCH  12  15
ENDBRANCH  10  11
BRANCH  10  22
ATOM     22  CB  ASP A   2      15.574   9.736  -4.906  1.00  0.00     0.157 C 
BRANCH  22  23
ATOM     23  CG  ASP A   2      14.401   9.289  -4.100  1.00  0.00     0.305 C 
ATOM     24  OD1 ASP A   2      14.391   9.458  -2.851  1.00  0.00    -0.252 OA
BRANCH  23  25
ATOM     25  OD2 ASP A   2      13.307   8.705  -4.731  1.00  0.00    -0.481 OA
ATOM     26  H   UNL     1      12.499   8.406  -4.199  1.00  0.00     0.296 HD
ENDBRANCH  23  25
ENDBRANCH  22  23
ENDBRANCH  10  22
ENDBRANCH   7  10
ENDBRANCH   5   6
BRANCH   5  27
ATOM     27  CB  LEU A   3      20.150  12.339  -5.313  1.00  0.00     0.038 C 
BRANCH  27  28
ATOM     28  CG  LEU A   3      20.432  12.204  -3.790  1.00  0.00    -0.015 C 
ATOM     29  CD1 LEU A   3      21.822  11.747  -3.390  1.00  0.00     0.007 C 
ATOM     30  CD2 LEU A   3      19.303  11.894  -2.819  1.00  0.00     0.007 C 
ENDBRANCH  27  28
ENDBRANCH   5  27
ENDBRANCH   1   5
BRANCH   3  31
ATOM     31  CA  ALA A   4      21.342   8.742  -8.143  1.00  0.00     0.168 C 
ATOM     32  CB  ALA A   4      20.661   8.007  -9.290  1.00  0.00     0.041 C 
BRANCH  31  33
ATOM     33  C   ALA A   4      22.708   9.196  -8.526  1.00  0.00     0.242 C 
ATOM     34  N   ARG A   5      23.818   8.705  -7.789  1.00  0.00    -0.343 N 
ATOM     35  O   ALA A   4      22.871  10.024  -9.464  1.00  0.00    -0.273 OA
ATOM     36  H   UNL     1      23.665   7.983  -7.047  1.00  0.00     0.164 HD
BRANCH  34  37
ATOM     37  CA  ARG A   5      25.180   9.117  -8.072  1.00  0.00     0.171 C 
BRANCH  37  38
ATOM     38  C   ARG A   5      25.901   7.968  -8.686  1.00  0.00     0.243 C 
ATOM     39  N   ASN A   6      25.916   7.866 -10.103  1.00  0.00    -0.341 N 
ATOM     40  O   ARG A   5      26.450   7.087  -7.970  1.00  0.00    -0.273 OA
ATOM     41  H   UNL     1      25.496   8.651 -10.651  1.00  0.00     0.164 HD
BRANCH  39  42
ATOM     42  CA  ASN A   6      26.543   6.751 -10.804  1.00  0.00     0.201 C 
BRANCH  42  43
ATOM     43  C   ASN A   6      27.994   6.642 -10.417  1.00  0.00     0.326 C 
ATOM     44  O   ASN A   6      28.795   7.579 -10.677  1.00  0.00    -0.250 OA
BRANCH  43  45
ATOM     45  OXT ASN A   6      28.453   5.497  -9.772  1.00  0.00    -0.480 OA
ATOM     46  H   UNL     1      29.426   5.407  -9.504  1.00  0.00     0.296 HD
ENDBRANCH  43  45
ENDBRANCH  42  43
BRANCH  42  47
ATOM     47  CB  ASN A   6      26.424   6.946 -12.323  1.00  0.00     0.136 C 
BRANCH  47  48
ATOM     48  CG  ASN A   6      25.009   7.181 -12.772  1.00  0.00     0.220 C 
ATOM     49  ND2 ASN A   6      24.753   8.089 -13.834  1.00  0.00    -0.370 N 
ATOM     50  OD1 ASN A   6      24.051   6.563 -12.238  1.00  0.00    -0.275 OA
ATOM     51  H   UNL     1      23.775   8.258 -14.156  1.00  0.00     0.159 HD
ATOM     52  H   UNL     1      25.533   8.595 -14.309  1.00  0.00     0.159 HD
ENDBRANCH  47  48
ENDBRANCH  42  47
ENDBRANCH  39  42
ENDBRANCH  37  38
BRANCH  37  53
ATOM     53  CB  ARG A   5      25.856   9.601  -6.794  1.00  0.00     0.037 C 
BRANCH  53  54
ATOM     54  CG  ARG A   5      25.163  10.859  -6.272  1.00  0.00     0.024 C 
BRANCH  54  55
ATOM     55  CD  ARG A   5      25.837  11.391  -5.015  1.00  0.00     0.116 C 
BRANCH  55  56
ATOM     56  NE  ARG A   5      25.375  10.685  -3.823  1.00  0.00    -0.357 N 
ATOM     57  CZ  ARG A   5      25.467  11.279  -2.527  1.00  0.00     0.185 C 
ATOM     58  NH2 ARG A   5      26.106  12.541  -2.350  1.00  0.00    -0.370 N 
ATOM     59  H   UNL     1      24.893   9.761  -3.922  1.00  0.00     0.163 HD
ATOM     60  H   UNL     1      26.691  12.982  -3.092  1.00  0.00     0.159 HD
ATOM     61  H   UNL     1      26.083  13.007  -1.416  1.00  0.00     0.159 HD
BRANCH  57  62
ATOM     62  NH1 ARG A   5      24.956  10.680  -1.500  1.00  0.00    -0.270 NA
ATOM     63  H   UNL     1      24.473   9.758  -1.584  1.00  0.00     0.191 HD
ENDBRANCH  57  62
ENDBRANCH  55  56
ENDBRANCH  54  55
ENDBRANCH  53  54
ENDBRANCH  37  53
ENDBRANCH  34  37
ENDBRANCH  31  33
ENDBRANCH   3  31
TORSDOF 27
