REMARK SMILES CC(C)C[C@H](NC(=O)[C@H](Cc1ccccc1)NC(=O)[C@@H](N)CO)C(=O)N[C@@H](CCC(N)=O)C(=O)N[C@@H](CCCNC(=N)N)C(=O)N[C@@H](C)C(=O)O
REMARK SMILES IDX 24 1 25 2 26 3 5 5 6 6 7 7 8 8 9 10 17 11 18 12 19 13 20 15
REMARK SMILES IDX 21 16 22 19 23 20 10 22 11 23 12 24 16 25 13 26 15 27 14 28
REMARK SMILES IDX 4 29 2 30 1 31 3 32 27 33 33 34 35 35 34 36 36 38 44 39
REMARK SMILES IDX 46 40 45 41 47 43 48 44 49 45 50 46 51 47 37 49 38 50 39 51
REMARK SMILES IDX 40 52 41 53 43 54 42 58 28 60 29 61 30 62 31 63 32 64
REMARK H PARENT 26 4 6 9 17 14 21 17 21 18 23 21 35 37 46 42 51 48 40 55 43 56
REMARK H PARENT 43 57 42 59 31 65 31 66
ROOT
ATOM      1  C   LEU A   3      20.052  10.085  -6.477  1.00  0.00     0.243 C 
ATOM      2  O   LEU A   3      20.163   9.161  -5.624  1.00  0.00    -0.273 OA
ATOM      3  N   GLN A   4      20.566   9.917  -7.786  1.00  0.00    -0.343 N 
ATOM      4  H   UNL     1      20.400  10.656  -8.507  1.00  0.00     0.164 HD
ENDROOT
BRANCH   1   5
ATOM      5  CA  LEU A   3      19.340  11.354  -6.146  1.00  0.00     0.171 C 
BRANCH   5   6
ATOM      6  N   LEU A   3      18.082  11.021  -5.537  1.00  0.00    -0.343 N 
ATOM      7  C   PHE A   2      16.885  11.745  -5.776  1.00  0.00     0.243 C 
ATOM      8  O   PHE A   2      16.904  12.796  -6.475  1.00  0.00    -0.273 OA
ATOM      9  H   UNL     1      18.155  10.388  -4.717  1.00  0.00     0.164 HD
BRANCH   7  10
ATOM     10  CA  PHE A   2      15.650  11.313  -5.057  1.00  0.00     0.175 C 
BRANCH  10  11
ATOM     11  N   PHE A   2      14.453  11.739  -5.768  1.00  0.00    -0.343 N 
ATOM     12  C   SER A   1      13.915  13.050  -5.636  1.00  0.00     0.239 C 
ATOM     13  O   SER A   1      14.449  13.869  -4.839  1.00  0.00    -0.273 OA
ATOM     14  H   UNL     1      13.863  11.000  -6.209  1.00  0.00     0.164 HD
BRANCH  12  15
ATOM     15  CA  SER A   1      12.655  13.410  -6.383  1.00  0.00     0.167 C 
BRANCH  15  16
ATOM     16  N   SER A   1      12.467  14.862  -6.382  1.00  0.00    -0.318 NA
ATOM     17  H   UNL     1      11.581  15.087  -6.890  1.00  0.00     0.119 HD
ATOM     18  H   UNL     1      12.304  15.174  -5.396  1.00  0.00     0.119 HD
ENDBRANCH  15  16
BRANCH  15  19
ATOM     19  CB  SER A   1      12.695  12.893  -7.842  1.00  0.00     0.184 C 
BRANCH  19  20
ATOM     20  OG  SER A   1      11.440  13.037  -8.449  1.00  0.00    -0.394 OA
ATOM     21  H   UNL     1      10.855  12.333  -8.065  1.00  0.00     0.210 HD
ENDBRANCH  19  20
ENDBRANCH  15  19
ENDBRANCH  12  15
ENDBRANCH  10  11
BRANCH  10  22
ATOM     22  CB  PHE A   2      15.609   9.773  -4.881  1.00  0.00     0.070 C 
BRANCH  22  23
ATOM     23  CG  PHE A   2      14.435   9.292  -4.092  1.00  0.00    -0.045 A 
ATOM     24  CD1 PHE A   2      13.898  10.048  -3.033  1.00  0.00     0.004 A 
ATOM     25  CD2 PHE A   2      13.964   7.991  -4.310  1.00  0.00     0.004 A 
ATOM     26  CE1 PHE A   2      12.866   9.535  -2.258  1.00  0.00     0.000 A 
ATOM     27  CE2 PHE A   2      12.937   7.476  -3.520  1.00  0.00     0.000 A 
ATOM     28  CZ  PHE A   2      12.384   8.251  -2.500  1.00  0.00     0.000 A 
ENDBRANCH  22  23
ENDBRANCH  10  22
ENDBRANCH   7  10
ENDBRANCH   5   6
BRANCH   5  29
ATOM     29  CB  LEU A   3      20.164  12.253  -5.215  1.00  0.00     0.038 C 
BRANCH  29  30
ATOM     30  CG  LEU A   3      20.417  11.679  -3.791  1.00  0.00    -0.015 C 
ATOM     31  CD1 LEU A   3      21.819  12.066  -3.316  1.00  0.00     0.007 C 
ATOM     32  CD2 LEU A   3      19.369  12.170  -2.780  1.00  0.00     0.007 C 
ENDBRANCH  29  30
ENDBRANCH   5  29
ENDBRANCH   1   5
BRANCH   3  33
ATOM     33  CA  GLN A   4      21.350   8.755  -8.152  1.00  0.00     0.171 C 
BRANCH  33  34
ATOM     34  C   GLN A   4      22.714   9.213  -8.527  1.00  0.00     0.243 C 
ATOM     35  N   ARG A   5      23.822   8.714  -7.793  1.00  0.00    -0.343 N 
ATOM     36  O   GLN A   4      22.879  10.035  -9.469  1.00  0.00    -0.273 OA
ATOM     37  H   UNL     1      23.667   7.997  -7.047  1.00  0.00     0.164 HD
BRANCH  35  38
ATOM     38  CA  ARG A   5      25.186   9.118  -8.079  1.00  0.00     0.171 C 
BRANCH  38  39
ATOM     39  C   ARG A   5      25.901   7.964  -8.693  1.00  0.00     0.243 C 
ATOM     40  N   ALA A   6      25.886   7.840 -10.110  1.00  0.00    -0.341 N 
ATOM     41  O   ARG A   5      26.458   7.091  -7.975  1.00  0.00    -0.273 OA
ATOM     42  H   UNL     1      25.367   8.562 -10.663  1.00  0.00     0.164 HD
BRANCH  40  43
ATOM     43  CA  ALA A   6      26.545   6.745 -10.813  1.00  0.00     0.189 C 
ATOM     44  CB  ALA A   6      26.420   6.955 -12.323  1.00  0.00     0.043 C 
BRANCH  43  45
ATOM     45  C   ALA A   6      27.994   6.651 -10.418  1.00  0.00     0.325 C 
ATOM     46  O   ALA A   6      28.791   7.589 -10.686  1.00  0.00    -0.250 OA
BRANCH  45  47
ATOM     47  OXT ALA A   6      28.456   5.520  -9.753  1.00  0.00    -0.480 OA
ATOM     48  H   UNL     1      29.428   5.439  -9.478  1.00  0.00     0.296 HD
ENDBRANCH  45  47
ENDBRANCH  43  45
ENDBRANCH  40  43
ENDBRANCH  38  39
BRANCH  38  49
ATOM     49  CB  ARG A   5      25.861   9.602  -6.799  1.00  0.00     0.037 C 
BRANCH  49  50
ATOM     50  CG  ARG A   5      25.165  10.858  -6.273  1.00  0.00     0.024 C 
BRANCH  50  51
ATOM     51  CD  ARG A   5      25.839  11.390  -5.016  1.00  0.00     0.116 C 
BRANCH  51  52
ATOM     52  NE  ARG A   5      25.377  10.683  -3.824  1.00  0.00    -0.357 N 
ATOM     53  CZ  ARG A   5      25.468  11.279  -2.528  1.00  0.00     0.185 C 
ATOM     54  NH2 ARG A   5      26.105  12.541  -2.351  1.00  0.00    -0.370 N 
ATOM     55  H   UNL     1      24.899   9.759  -3.922  1.00  0.00     0.163 HD
ATOM     56  H   UNL     1      26.081  13.007  -1.417  1.00  0.00     0.159 HD
ATOM     57  H   UNL     1      26.691  12.983  -3.092  1.00  0.00     0.159 HD
BRANCH  53  58
ATOM     58  NH1 ARG A   5      24.956  10.679  -1.500  1.00  0.00    -0.270 NA
ATOM     59  H   UNL     1      24.474   9.757  -1.584  1.00  0.00     0.191 HD
ENDBRANCH  53  58
ENDBRANCH  51  52
ENDBRANCH  50  51
ENDBRANCH  49  50
ENDBRANCH  38  49
ENDBRANCH  35  38
ENDBRANCH  33  34
BRANCH  33  60
ATOM     60  CB  GLN A   4      20.660   7.993  -9.287  1.00  0.00     0.045 C 
BRANCH  60  61
ATOM     61  CG  GLN A   4      21.452   6.765  -9.764  1.00  0.00     0.102 C 
BRANCH  61  62
ATOM     62  CD  GLN A   4      21.758   5.806  -8.646  1.00  0.00     0.217 C 
ATOM     63  NE2 GLN A   4      23.105   5.444  -8.347  1.00  0.00    -0.370 N 
ATOM     64  OE1 GLN A   4      20.815   5.300  -7.981  1.00  0.00    -0.275 OA
ATOM     65  H   UNL     1      23.312   4.787  -7.562  1.00  0.00     0.159 HD
ATOM     66  H   UNL     1      23.899   5.821  -8.911  1.00  0.00     0.159 HD
ENDBRANCH  61  62
ENDBRANCH  60  61
ENDBRANCH  33  60
ENDBRANCH   3  33
TORSDOF 27
