REMARK SMILES N=C(N)NCCC[C@H](NC(=O)CNC(=O)[C@H](CO)NC(=O)[C@H](Cc1ccccc1)NC(=O)[C@@H](N)CO)C(=O)N[C@@H](CC(N)=O)C(=O)O
REMARK SMILES IDX 14 1 15 2 13 3 16 5 19 6 20 7 21 8 22 10 30 11 31 12 32 13
REMARK SMILES IDX 33 15 34 16 35 19 36 20 23 22 24 23 25 24 29 25 26 26 28 27
REMARK SMILES IDX 27 28 17 29 18 30 12 32 10 33 9 34 11 35 8 37 37 38 39 39
REMARK SMILES IDX 38 40 40 42 45 43 46 44 47 45 41 47 42 48 43 49 44 50 7 53
REMARK SMILES IDX 6 54 5 55 4 56 2 57 3 58 1 62
REMARK H PARENT 13 4 19 9 30 14 34 17 34 18 36 21 18 31 9 36 39 41 47 46 43 51
REMARK H PARENT 43 52 4 59 3 60 3 61 1 63
ROOT
ATOM      1  C   SER A   3      20.051  10.090  -6.471  1.00  0.00     0.245 C 
ATOM      2  O   SER A   3      20.189   9.188  -5.598  1.00  0.00    -0.273 OA
ATOM      3  N   GLY A   4      20.552   9.910  -7.787  1.00  0.00    -0.345 N 
ATOM      4  H   UNL     1      20.380  10.650  -8.506  1.00  0.00     0.164 HD
ENDROOT
BRANCH   1   5
ATOM      5  CA  SER A   3      19.346  11.367  -6.149  1.00  0.00     0.197 C 
BRANCH   5   6
ATOM      6  N   SER A   3      18.098  11.053  -5.500  1.00  0.00    -0.340 N 
ATOM      7  C   PHE A   2      16.891  11.750  -5.774  1.00  0.00     0.243 C 
ATOM      8  O   PHE A   2      16.903  12.791  -6.486  1.00  0.00    -0.273 OA
ATOM      9  H   UNL     1      18.191  10.546  -4.593  1.00  0.00     0.164 HD
BRANCH   7  10
ATOM     10  CA  PHE A   2      15.655  11.314  -5.059  1.00  0.00     0.175 C 
BRANCH  10  11
ATOM     11  N   PHE A   2      14.457  11.741  -5.769  1.00  0.00    -0.343 N 
ATOM     12  C   SER A   1      13.916  13.050  -5.637  1.00  0.00     0.239 C 
ATOM     13  O   SER A   1      14.444  13.870  -4.836  1.00  0.00    -0.273 OA
ATOM     14  H   UNL     1      13.869  11.000  -6.211  1.00  0.00     0.164 HD
BRANCH  12  15
ATOM     15  CA  SER A   1      12.662  13.410  -6.389  1.00  0.00     0.167 C 
BRANCH  15  16
ATOM     16  N   SER A   1      12.472  14.862  -6.376  1.00  0.00    -0.318 NA
ATOM     17  H   UNL     1      11.539  15.086  -6.793  1.00  0.00     0.119 HD
ATOM     18  H   UNL     1      13.202  15.317  -6.972  1.00  0.00     0.119 HD
ENDBRANCH  15  16
BRANCH  15  19
ATOM     19  CB  SER A   1      12.687  12.878  -7.844  1.00  0.00     0.184 C 
BRANCH  19  20
ATOM     20  OG  SER A   1      11.437  13.047  -8.451  1.00  0.00    -0.394 OA
ATOM     21  H   UNL     1      10.831  12.368  -8.053  1.00  0.00     0.210 HD
ENDBRANCH  19  20
ENDBRANCH  15  19
ENDBRANCH  12  15
ENDBRANCH  10  11
BRANCH  10  22
ATOM     22  CB  PHE A   2      15.619   9.776  -4.890  1.00  0.00     0.070 C 
BRANCH  22  23
ATOM     23  CG  PHE A   2      14.449   9.289  -4.089  1.00  0.00    -0.045 A 
ATOM     24  CD1 PHE A   2      13.906  10.047  -3.033  1.00  0.00     0.004 A 
ATOM     25  CD2 PHE A   2      13.972   7.990  -4.310  1.00  0.00     0.004 A 
ATOM     26  CE1 PHE A   2      12.870   9.536  -2.261  1.00  0.00     0.000 A 
ATOM     27  CE2 PHE A   2      12.941   7.478  -3.522  1.00  0.00     0.000 A 
ATOM     28  CZ  PHE A   2      12.387   8.253  -2.503  1.00  0.00     0.000 A 
ENDBRANCH  22  23
ENDBRANCH  10  22
ENDBRANCH   7  10
ENDBRANCH   5   6
BRANCH   5  29
ATOM     29  CB  SER A   3      20.183  12.245  -5.218  1.00  0.00     0.191 C 
BRANCH  29  30
ATOM     30  OG  SER A   3      21.403  12.586  -5.820  1.00  0.00    -0.394 OA
ATOM     31  H   UNL     1      21.199  13.274  -6.506  1.00  0.00     0.210 HD
ENDBRANCH  29  30
ENDBRANCH   5  29
ENDBRANCH   1   5
BRANCH   3  32
ATOM     32  CA  GLY A   4      21.330   8.755  -8.187  1.00  0.00     0.216 C 
BRANCH  32  33
ATOM     33  C   GLY A   4      22.703   9.205  -8.532  1.00  0.00     0.240 C 
ATOM     34  N   ARG A   5      23.806   8.708  -7.787  1.00  0.00    -0.343 N 
ATOM     35  O   GLY A   4      22.878  10.029  -9.470  1.00  0.00    -0.273 OA
ATOM     36  H   UNL     1      23.642   7.990  -7.044  1.00  0.00     0.164 HD
BRANCH  34  37
ATOM     37  CA  ARG A   5      25.174   9.114  -8.069  1.00  0.00     0.171 C 
BRANCH  37  38
ATOM     38  C   ARG A   5      25.896   7.965  -8.684  1.00  0.00     0.243 C 
ATOM     39  N   ASN A   6      25.915   7.866 -10.101  1.00  0.00    -0.341 N 
ATOM     40  O   ARG A   5      26.447   7.086  -7.969  1.00  0.00    -0.273 OA
ATOM     41  H   UNL     1      25.496   8.652 -10.650  1.00  0.00     0.164 HD
BRANCH  39  42
ATOM     42  CA  ASN A   6      26.543   6.752 -10.803  1.00  0.00     0.201 C 
BRANCH  42  43
ATOM     43  C   ASN A   6      27.993   6.642 -10.416  1.00  0.00     0.326 C 
ATOM     44  O   ASN A   6      28.795   7.579 -10.677  1.00  0.00    -0.250 OA
BRANCH  43  45
ATOM     45  OXT ASN A   6      28.452   5.499  -9.769  1.00  0.00    -0.480 OA
ATOM     46  H   UNL     1      29.425   5.409  -9.501  1.00  0.00     0.296 HD
ENDBRANCH  43  45
ENDBRANCH  42  43
BRANCH  42  47
ATOM     47  CB  ASN A   6      26.424   6.947 -12.323  1.00  0.00     0.136 C 
BRANCH  47  48
ATOM     48  CG  ASN A   6      25.010   7.181 -12.772  1.00  0.00     0.220 C 
ATOM     49  ND2 ASN A   6      24.754   8.089 -13.834  1.00  0.00    -0.370 N 
ATOM     50  OD1 ASN A   6      24.051   6.563 -12.238  1.00  0.00    -0.275 OA
ATOM     51  H   UNL     1      23.775   8.258 -14.157  1.00  0.00     0.159 HD
ATOM     52  H   UNL     1      25.534   8.596 -14.309  1.00  0.00     0.159 HD
ENDBRANCH  47  48
ENDBRANCH  42  47
ENDBRANCH  39  42
ENDBRANCH  37  38
BRANCH  37  53
ATOM     53  CB  ARG A   5      25.851   9.598  -6.791  1.00  0.00     0.037 C 
BRANCH  53  54
ATOM     54  CG  ARG A   5      25.163  10.858  -6.270  1.00  0.00     0.024 C 
BRANCH  54  55
ATOM     55  CD  ARG A   5      25.840  11.389  -5.014  1.00  0.00     0.116 C 
BRANCH  55  56
ATOM     56  NE  ARG A   5      25.377  10.687  -3.820  1.00  0.00    -0.357 N 
ATOM     57  CZ  ARG A   5      25.470  11.282  -2.527  1.00  0.00     0.185 C 
ATOM     58  NH2 ARG A   5      26.109  12.546  -2.352  1.00  0.00    -0.370 N 
ATOM     59  H   UNL     1      24.896   9.762  -3.911  1.00  0.00     0.163 HD
ATOM     60  H   UNL     1      26.699  12.981  -3.094  1.00  0.00     0.159 HD
ATOM     61  H   UNL     1      26.085  13.022  -1.423  1.00  0.00     0.159 HD
BRANCH  57  62
ATOM     62  NH1 ARG A   5      24.956  10.672  -1.506  1.00  0.00    -0.270 NA
ATOM     63  H   UNL     1      24.999  11.075  -0.544  1.00  0.00     0.191 HD
ENDBRANCH  57  62
ENDBRANCH  55  56
ENDBRANCH  54  55
ENDBRANCH  53  54
ENDBRANCH  37  53
ENDBRANCH  34  37
ENDBRANCH  32  33
ENDBRANCH   3  32
TORSDOF 26
