REMARK SMILES CC(C)C[C@H](NC(=O)[C@H](CCC(N)=O)NC(=O)[C@H](Cc1ccccc1)NC(=O)[C@H](C)N)C(=O)N[C@@H](CCCNC(=N)N)C(=O)N[C@@H](CC(N)=O)C(=O)O
REMARK SMILES IDX 5 1 6 2 7 3 8 4 9 6 15 7 16 8 17 9 18 11 26 12 27 13 28 14
REMARK SMILES IDX 29 16 30 17 31 18 19 21 20 22 21 23 25 24 22 25 24 26 23 27
REMARK SMILES IDX 10 28 11 29 12 30 13 31 14 32 32 35 34 36 33 37 35 39 43 40
REMARK SMILES IDX 45 41 44 42 46 44 51 45 52 46 53 47 47 49 48 50 49 51 50 52
REMARK SMILES IDX 36 55 37 56 38 57 39 58 40 59 42 60 41 64 4 66 2 67 1 68
REMARK SMILES IDX 3 69
REMARK H PARENT 6 5 15 10 26 15 31 19 31 20 13 33 13 34 34 38 45 43 53 48
REMARK H PARENT 49 53 49 54 39 61 42 62 42 63 41 65
ROOT
ATOM      1  CA  LEU A   4      21.349   8.759  -8.141  1.00  0.00     0.171 C 
ENDROOT
BRANCH   1   2
ATOM      2  N   LEU A   4      20.564   9.920  -7.776  1.00  0.00    -0.343 N 
ATOM      3  C   GLN A   3      20.040  10.085  -6.469  1.00  0.00     0.243 C 
ATOM      4  O   GLN A   3      20.156   9.166  -5.610  1.00  0.00    -0.273 OA
ATOM      5  H   UNL     1      20.403  10.662  -8.496  1.00  0.00     0.164 HD
BRANCH   3   6
ATOM      6  CA  GLN A   3      19.338  11.358  -6.139  1.00  0.00     0.171 C 
BRANCH   6   7
ATOM      7  N   GLN A   3      18.087  11.048  -5.498  1.00  0.00    -0.342 N 
ATOM      8  C   PHE A   2      16.887  11.751  -5.774  1.00  0.00     0.243 C 
ATOM      9  O   PHE A   2      16.906  12.794  -6.483  1.00  0.00    -0.273 OA
ATOM     10  H   UNL     1      18.157  10.505  -4.613  1.00  0.00     0.164 HD
BRANCH   8  11
ATOM     11  CA  PHE A   2      15.648  11.315  -5.069  1.00  0.00     0.175 C 
BRANCH  11  12
ATOM     12  N   PHE A   2      14.464  11.750  -5.795  1.00  0.00    -0.343 N 
ATOM     13  C   ALA A   1      13.908  13.049  -5.625  1.00  0.00     0.237 C 
ATOM     14  O   ALA A   1      14.437  13.857  -4.814  1.00  0.00    -0.273 OA
ATOM     15  H   UNL     1      14.007  11.070  -6.442  1.00  0.00     0.164 HD
BRANCH  13  16
ATOM     16  CA  ALA A   1      12.657  13.427  -6.378  1.00  0.00     0.138 C 
ATOM     17  CB  ALA A   1      12.676  12.896  -7.820  1.00  0.00     0.035 C 
BRANCH  16  18
ATOM     18  N   ALA A   1      12.474  14.878  -6.403  1.00  0.00    -0.320 NA
ATOM     19  H   UNL     1      13.341  15.334  -6.773  1.00  0.00     0.119 HD
ATOM     20  H   UNL     1      12.319  15.221  -5.426  1.00  0.00     0.119 HD
ENDBRANCH  16  18
ENDBRANCH  13  16
ENDBRANCH  11  12
BRANCH  11  21
ATOM     21  CB  PHE A   2      15.603   9.776  -4.903  1.00  0.00     0.070 C 
BRANCH  21  22
ATOM     22  CG  PHE A   2      14.438   9.293  -4.097  1.00  0.00    -0.045 A 
ATOM     23  CD1 PHE A   2      13.901  10.049  -3.037  1.00  0.00     0.004 A 
ATOM     24  CD2 PHE A   2      13.966   7.991  -4.312  1.00  0.00     0.004 A 
ATOM     25  CE1 PHE A   2      12.870   9.537  -2.260  1.00  0.00     0.000 A 
ATOM     26  CE2 PHE A   2      12.940   7.477  -3.520  1.00  0.00     0.000 A 
ATOM     27  CZ  PHE A   2      12.387   8.253  -2.501  1.00  0.00     0.000 A 
ENDBRANCH  21  22
ENDBRANCH  11  21
ENDBRANCH   8  11
ENDBRANCH   6   7
BRANCH   6  28
ATOM     28  CB  GLN A   3      20.190  12.255  -5.237  1.00  0.00     0.045 C 
BRANCH  28  29
ATOM     29  CG  GLN A   3      20.401  11.721  -3.803  1.00  0.00     0.102 C 
BRANCH  29  30
ATOM     30  CD  GLN A   3      21.775  12.050  -3.319  1.00  0.00     0.217 C 
ATOM     31  NE2 GLN A   3      22.159  13.402  -3.070  1.00  0.00    -0.370 N 
ATOM     32  OE1 GLN A   3      22.600  11.120  -3.137  1.00  0.00    -0.275 OA
ATOM     33  H   UNL     1      21.481  14.183  -3.216  1.00  0.00     0.159 HD
ATOM     34  H   UNL     1      23.125  13.623  -2.741  1.00  0.00     0.159 HD
ENDBRANCH  29  30
ENDBRANCH  28  29
ENDBRANCH   6  28
ENDBRANCH   3   6
ENDBRANCH   1   2
BRANCH   1  35
ATOM     35  C   LEU A   4      22.714   9.215  -8.522  1.00  0.00     0.243 C 
ATOM     36  N   ARG A   5      23.823   8.721  -7.785  1.00  0.00    -0.343 N 
ATOM     37  O   LEU A   4      22.878  10.032  -9.469  1.00  0.00    -0.273 OA
ATOM     38  H   UNL     1      23.667   8.031  -7.015  1.00  0.00     0.164 HD
BRANCH  36  39
ATOM     39  CA  ARG A   5      25.186   9.122  -8.072  1.00  0.00     0.171 C 
BRANCH  39  40
ATOM     40  C   ARG A   5      25.900   7.968  -8.685  1.00  0.00     0.243 C 
ATOM     41  N   ASN A   6      25.913   7.865 -10.102  1.00  0.00    -0.341 N 
ATOM     42  O   ARG A   5      26.447   7.087  -7.969  1.00  0.00    -0.273 OA
ATOM     43  H   UNL     1      25.488   8.647 -10.651  1.00  0.00     0.164 HD
BRANCH  41  44
ATOM     44  CA  ASN A   6      26.542   6.751 -10.804  1.00  0.00     0.201 C 
BRANCH  44  45
ATOM     45  C   ASN A   6      27.993   6.642 -10.416  1.00  0.00     0.326 C 
ATOM     46  O   ASN A   6      28.794   7.579 -10.677  1.00  0.00    -0.250 OA
BRANCH  45  47
ATOM     47  OXT ASN A   6      28.451   5.499  -9.768  1.00  0.00    -0.480 OA
ATOM     48  H   UNL     1      29.424   5.409  -9.499  1.00  0.00     0.296 HD
ENDBRANCH  45  47
ENDBRANCH  44  45
BRANCH  44  49
ATOM     49  CB  ASN A   6      26.424   6.947 -12.323  1.00  0.00     0.136 C 
BRANCH  49  50
ATOM     50  CG  ASN A   6      25.010   7.181 -12.773  1.00  0.00     0.220 C 
ATOM     51  ND2 ASN A   6      24.753   8.090 -13.833  1.00  0.00    -0.370 N 
ATOM     52  OD1 ASN A   6      24.053   6.558 -12.243  1.00  0.00    -0.275 OA
ATOM     53  H   UNL     1      23.775   8.258 -14.156  1.00  0.00     0.159 HD
ATOM     54  H   UNL     1      25.533   8.600 -14.306  1.00  0.00     0.159 HD
ENDBRANCH  49  50
ENDBRANCH  44  49
ENDBRANCH  41  44
ENDBRANCH  39  40
BRANCH  39  55
ATOM     55  CB  ARG A   5      25.863   9.606  -6.795  1.00  0.00     0.037 C 
BRANCH  55  56
ATOM     56  CG  ARG A   5      25.162  10.857  -6.265  1.00  0.00     0.024 C 
BRANCH  56  57
ATOM     57  CD  ARG A   5      25.842  11.394  -5.014  1.00  0.00     0.116 C 
BRANCH  57  58
ATOM     58  NE  ARG A   5      25.401  10.681  -3.817  1.00  0.00    -0.357 N 
ATOM     59  CZ  ARG A   5      25.488  11.279  -2.524  1.00  0.00     0.185 C 
ATOM     60  NH2 ARG A   5      26.110  12.552  -2.352  1.00  0.00    -0.370 N 
ATOM     61  H   UNL     1      24.949   9.742  -3.905  1.00  0.00     0.163 HD
ATOM     62  H   UNL     1      26.696  12.991  -3.094  1.00  0.00     0.159 HD
ATOM     63  H   UNL     1      26.072  13.034  -1.426  1.00  0.00     0.159 HD
BRANCH  59  64
ATOM     64  NH1 ARG A   5      24.977  10.668  -1.503  1.00  0.00    -0.270 NA
ATOM     65  H   UNL     1      25.012  11.076  -0.542  1.00  0.00     0.191 HD
ENDBRANCH  59  64
ENDBRANCH  57  58
ENDBRANCH  56  57
ENDBRANCH  55  56
ENDBRANCH  39  55
ENDBRANCH  36  39
ENDBRANCH   1  35
BRANCH   1  66
ATOM     66  CB  LEU A   4      20.656   7.999  -9.273  1.00  0.00     0.038 C 
BRANCH  66  67
ATOM     67  CG  LEU A   4      21.449   6.770  -9.769  1.00  0.00    -0.015 C 
ATOM     68  CD1 LEU A   4      21.762   5.778  -8.639  1.00  0.00     0.007 C 
ATOM     69  CD2 LEU A   4      20.662   6.066 -10.878  1.00  0.00     0.007 C 
ENDBRANCH  66  67
ENDBRANCH   1  66
TORSDOF 27
