REMARK SMILES CC(C)C[C@H](NC(=O)[C@H](Cc1c[nH]cn1)NC(=O)[C@H](Cc1ccccc1)NC(=O)[C@@H](N)CO)C(=O)N[C@@H](CCC(N)=O)C(=O)N[C@@H](CC(N)=O)C(=O)O
REMARK SMILES IDX 7 1 8 2 6 3 9 5 16 6 17 7 18 8 19 10 27 11 28 12 29 13 30 15
REMARK SMILES IDX 31 16 32 19 33 20 20 22 21 23 22 24 26 25 23 26 25 27 24 28
REMARK SMILES IDX 10 29 11 30 15 31 12 32 14 33 13 34 5 36 34 37 36 38 35 39
REMARK SMILES IDX 37 41 43 42 45 43 44 44 46 46 51 47 52 48 53 49 47 51 48 52
REMARK SMILES IDX 49 53 50 54 38 57 39 58 40 59 41 60 42 61 4 64 2 65 1 66
REMARK SMILES IDX 3 67
REMARK H PARENT 6 4 16 9 27 14 31 17 31 18 33 21 13 35 36 40 45 45 53 50 49 55
REMARK H PARENT 49 56 41 62 41 63
ROOT
ATOM      1  C   HIS A   3      20.052  10.096  -6.459  1.00  0.00     0.243 C 
ATOM      2  O   HIS A   3      20.171   9.184  -5.594  1.00  0.00    -0.273 OA
ATOM      3  N   LEU A   4      20.563   9.921  -7.771  1.00  0.00    -0.342 N 
ATOM      4  H   UNL     1      20.395  10.659  -8.494  1.00  0.00     0.164 HD
ENDROOT
BRANCH   1   5
ATOM      5  CA  HIS A   3      19.346  11.368  -6.131  1.00  0.00     0.177 C 
BRANCH   5   6
ATOM      6  N   HIS A   3      18.088  11.043  -5.511  1.00  0.00    -0.342 N 
ATOM      7  C   PHE A   2      16.887  11.750  -5.774  1.00  0.00     0.243 C 
ATOM      8  O   PHE A   2      16.903  12.794  -6.482  1.00  0.00    -0.273 OA
ATOM      9  H   UNL     1      18.163  10.478  -4.640  1.00  0.00     0.164 HD
BRANCH   7  10
ATOM     10  CA  PHE A   2      15.652  11.314  -5.059  1.00  0.00     0.175 C 
BRANCH  10  11
ATOM     11  N   PHE A   2      14.455  11.741  -5.769  1.00  0.00    -0.343 N 
ATOM     12  C   SER A   1      13.914  13.050  -5.637  1.00  0.00     0.239 C 
ATOM     13  O   SER A   1      14.442  13.870  -4.836  1.00  0.00    -0.273 OA
ATOM     14  H   UNL     1      13.873  11.001  -6.218  1.00  0.00     0.164 HD
BRANCH  12  15
ATOM     15  CA  SER A   1      12.660  13.411  -6.390  1.00  0.00     0.167 C 
BRANCH  15  16
ATOM     16  N   SER A   1      12.475  14.863  -6.375  1.00  0.00    -0.318 NA
ATOM     17  H   UNL     1      13.174  15.315  -7.009  1.00  0.00     0.119 HD
ATOM     18  H   UNL     1      11.521  15.090  -6.739  1.00  0.00     0.119 HD
ENDBRANCH  15  16
BRANCH  15  19
ATOM     19  CB  SER A   1      12.688  12.878  -7.844  1.00  0.00     0.184 C 
BRANCH  19  20
ATOM     20  OG  SER A   1      11.436  13.047  -8.450  1.00  0.00    -0.394 OA
ATOM     21  H   UNL     1      11.446  13.936  -8.892  1.00  0.00     0.210 HD
ENDBRANCH  19  20
ENDBRANCH  15  19
ENDBRANCH  12  15
ENDBRANCH  10  11
BRANCH  10  22
ATOM     22  CB  PHE A   2      15.613   9.774  -4.888  1.00  0.00     0.070 C 
BRANCH  22  23
ATOM     23  CG  PHE A   2      14.442   9.290  -4.091  1.00  0.00    -0.045 A 
ATOM     24  CD1 PHE A   2      13.902  10.047  -3.033  1.00  0.00     0.004 A 
ATOM     25  CD2 PHE A   2      13.968   7.990  -4.310  1.00  0.00     0.004 A 
ATOM     26  CE1 PHE A   2      12.868   9.536  -2.260  1.00  0.00     0.000 A 
ATOM     27  CE2 PHE A   2      12.939   7.477  -3.521  1.00  0.00     0.000 A 
ATOM     28  CZ  PHE A   2      12.386   8.252  -2.502  1.00  0.00     0.000 A 
ENDBRANCH  22  23
ENDBRANCH  10  22
ENDBRANCH   7  10
ENDBRANCH   5   6
BRANCH   5  29
ATOM     29  CB  HIS A   3      20.174  12.265  -5.201  1.00  0.00     0.093 C 
BRANCH  29  30
ATOM     30  CG  HIS A   3      20.425  11.671  -3.839  1.00  0.00     0.061 A 
ATOM     31  ND1 HIS A   3      21.491  10.903  -3.538  1.00  0.00    -0.242 NA
ATOM     32  CD2 HIS A   3      19.622  11.814  -2.728  1.00  0.00     0.107 A 
ATOM     33  CE1 HIS A   3      21.309  10.592  -2.237  1.00  0.00     0.196 A 
ATOM     34  NE2 HIS A   3      20.187  11.129  -1.723  1.00  0.00    -0.351 N 
ATOM     35  H   UNL     1      19.830  11.032  -0.747  1.00  0.00     0.167 HD
ENDBRANCH  29  30
ENDBRANCH   5  29
ENDBRANCH   1   5
BRANCH   3  36
ATOM     36  CA  LEU A   4      21.348   8.760  -8.138  1.00  0.00     0.171 C 
BRANCH  36  37
ATOM     37  C   LEU A   4      22.713   9.218  -8.519  1.00  0.00     0.243 C 
ATOM     38  N   GLN A   5      23.823   8.729  -7.780  1.00  0.00    -0.343 N 
ATOM     39  O   LEU A   4      22.876  10.032  -9.469  1.00  0.00    -0.273 OA
ATOM     40  H   UNL     1      23.670   8.041  -7.009  1.00  0.00     0.164 HD
BRANCH  38  41
ATOM     41  CA  GLN A   5      25.186   9.133  -8.071  1.00  0.00     0.171 C 
BRANCH  41  42
ATOM     42  C   GLN A   5      25.900   7.975  -8.684  1.00  0.00     0.243 C 
ATOM     43  N   ASN A   6      25.912   7.868 -10.101  1.00  0.00    -0.341 N 
ATOM     44  O   GLN A   5      26.445   7.093  -7.967  1.00  0.00    -0.273 OA
ATOM     45  H   UNL     1      25.488   8.651 -10.650  1.00  0.00     0.164 HD
BRANCH  43  46
ATOM     46  CA  ASN A   6      26.541   6.753 -10.802  1.00  0.00     0.201 C 
BRANCH  46  47
ATOM     47  C   ASN A   6      27.991   6.643 -10.414  1.00  0.00     0.326 C 
ATOM     48  O   ASN A   6      28.794   7.579 -10.677  1.00  0.00    -0.250 OA
BRANCH  47  49
ATOM     49  OXT ASN A   6      28.449   5.500  -9.765  1.00  0.00    -0.480 OA
ATOM     50  H   UNL     1      29.421   5.410  -9.497  1.00  0.00     0.296 HD
ENDBRANCH  47  49
ENDBRANCH  46  47
BRANCH  46  51
ATOM     51  CB  ASN A   6      26.424   6.947 -12.322  1.00  0.00     0.136 C 
BRANCH  51  52
ATOM     52  CG  ASN A   6      25.010   7.181 -12.773  1.00  0.00     0.220 C 
ATOM     53  ND2 ASN A   6      24.753   8.090 -13.833  1.00  0.00    -0.370 N 
ATOM     54  OD1 ASN A   6      24.052   6.558 -12.243  1.00  0.00    -0.275 OA
ATOM     55  H   UNL     1      25.533   8.600 -14.305  1.00  0.00     0.159 HD
ATOM     56  H   UNL     1      23.775   8.257 -14.157  1.00  0.00     0.159 HD
ENDBRANCH  51  52
ENDBRANCH  46  51
ENDBRANCH  43  46
ENDBRANCH  41  42
BRANCH  41  57
ATOM     57  CB  GLN A   5      25.867   9.621  -6.796  1.00  0.00     0.045 C 
BRANCH  57  58
ATOM     58  CG  GLN A   5      25.180  10.877  -6.252  1.00  0.00     0.102 C 
BRANCH  58  59
ATOM     59  CD  GLN A   5      25.834  11.304  -4.979  1.00  0.00     0.217 C 
ATOM     60  NE2 GLN A   5      25.402  10.738  -3.742  1.00  0.00    -0.370 N 
ATOM     61  OE1 GLN A   5      26.786  12.128  -4.998  1.00  0.00    -0.275 OA
ATOM     62  H   UNL     1      24.627  10.039  -3.715  1.00  0.00     0.159 HD
ATOM     63  H   UNL     1      25.860  11.019  -2.847  1.00  0.00     0.159 HD
ENDBRANCH  58  59
ENDBRANCH  57  58
ENDBRANCH  41  57
ENDBRANCH  38  41
ENDBRANCH  36  37
BRANCH  36  64
ATOM     64  CB  LEU A   4      20.655   7.999  -9.270  1.00  0.00     0.038 C 
BRANCH  64  65
ATOM     65  CG  LEU A   4      21.449   6.771  -9.768  1.00  0.00    -0.015 C 
ATOM     66  CD1 LEU A   4      21.763   5.779  -8.639  1.00  0.00     0.007 C 
ATOM     67  CD2 LEU A   4      20.662   6.067 -10.877  1.00  0.00     0.007 C 
ENDBRANCH  64  65
ENDBRANCH  36  64
ENDBRANCH   3  36
TORSDOF 26
