REMARK SMILES CC(C)[C@H](NC(=O)[C@H](Cc1c[nH]cn1)NC(=O)[C@H](Cc1ccccc1)NC(=O)[C@@H](N)CO)C(=O)N[C@@H](CCCNC(=N)N)C(=O)N[C@@H](CC(N)=O)C(=O)O
REMARK SMILES IDX 6 1 7 2 5 3 8 5 15 6 16 7 17 8 18 10 26 11 27 12 28 13 29 15
REMARK SMILES IDX 30 16 31 19 32 20 19 22 20 23 21 24 25 25 22 26 24 27 23 28
REMARK SMILES IDX 9 29 10 30 14 31 11 32 13 33 12 34 4 36 33 37 35 38 34 39
REMARK SMILES IDX 36 41 44 42 46 43 45 44 47 46 52 47 53 48 54 49 48 51 49 52
REMARK SMILES IDX 50 53 51 54 37 57 38 58 39 59 40 60 41 61 43 62 42 66 2 68
REMARK SMILES IDX 1 69 3 70
REMARK H PARENT 5 4 15 9 26 14 30 17 30 18 32 21 12 35 35 40 46 45 54 50 50 55
REMARK H PARENT 50 56 40 63 43 64 43 65 42 67
ROOT
ATOM      1  C   HIS A   3      20.056  10.091  -6.459  1.00  0.00     0.243 C 
ATOM      2  O   HIS A   3      20.172   9.177  -5.597  1.00  0.00    -0.273 OA
ATOM      3  N   VAL A   4      20.571   9.919  -7.770  1.00  0.00    -0.342 N 
ATOM      4  H   UNL     1      20.408  10.661  -8.489  1.00  0.00     0.164 HD
ENDROOT
BRANCH   1   5
ATOM      5  CA  HIS A   3      19.349  11.364  -6.131  1.00  0.00     0.177 C 
BRANCH   5   6
ATOM      6  N   HIS A   3      18.091  11.041  -5.509  1.00  0.00    -0.342 N 
ATOM      7  C   PHE A   2      16.889  11.748  -5.774  1.00  0.00     0.243 C 
ATOM      8  O   PHE A   2      16.905  12.792  -6.482  1.00  0.00    -0.273 OA
ATOM      9  H   UNL     1      18.166  10.479  -4.636  1.00  0.00     0.164 HD
BRANCH   7  10
ATOM     10  CA  PHE A   2      15.654  11.312  -5.059  1.00  0.00     0.175 C 
BRANCH  10  11
ATOM     11  N   PHE A   2      14.457  11.740  -5.769  1.00  0.00    -0.343 N 
ATOM     12  C   SER A   1      13.917  13.049  -5.633  1.00  0.00     0.239 C 
ATOM     13  O   SER A   1      14.448  13.866  -4.831  1.00  0.00    -0.273 OA
ATOM     14  H   UNL     1      13.873  11.001  -6.219  1.00  0.00     0.164 HD
BRANCH  12  15
ATOM     15  CA  SER A   1      12.661  13.412  -6.387  1.00  0.00     0.167 C 
BRANCH  15  16
ATOM     16  N   SER A   1      12.457  14.862  -6.397  1.00  0.00    -0.318 NA
ATOM     17  H   UNL     1      13.318  15.337  -6.758  1.00  0.00     0.119 HD
ATOM     18  H   UNL     1      12.292  15.192  -5.418  1.00  0.00     0.119 HD
ENDBRANCH  15  16
BRANCH  15  19
ATOM     19  CB  SER A   1      12.690  12.888  -7.841  1.00  0.00     0.184 C 
BRANCH  19  20
ATOM     20  OG  SER A   1      11.437  13.050  -8.444  1.00  0.00    -0.394 OA
ATOM     21  H   UNL     1      11.385  13.993  -8.750  1.00  0.00     0.210 HD
ENDBRANCH  19  20
ENDBRANCH  15  19
ENDBRANCH  12  15
ENDBRANCH  10  11
BRANCH  10  22
ATOM     22  CB  PHE A   2      15.614   9.773  -4.889  1.00  0.00     0.070 C 
BRANCH  22  23
ATOM     23  CG  PHE A   2      14.443   9.290  -4.091  1.00  0.00    -0.045 A 
ATOM     24  CD1 PHE A   2      13.903  10.047  -3.033  1.00  0.00     0.004 A 
ATOM     25  CD2 PHE A   2      13.968   7.990  -4.310  1.00  0.00     0.004 A 
ATOM     26  CE1 PHE A   2      12.869   9.536  -2.260  1.00  0.00     0.000 A 
ATOM     27  CE2 PHE A   2      12.939   7.477  -3.521  1.00  0.00     0.000 A 
ATOM     28  CZ  PHE A   2      12.386   8.253  -2.502  1.00  0.00     0.000 A 
ENDBRANCH  22  23
ENDBRANCH  10  22
ENDBRANCH   7  10
ENDBRANCH   5   6
BRANCH   5  29
ATOM     29  CB  HIS A   3      20.179  12.261  -5.203  1.00  0.00     0.093 C 
BRANCH  29  30
ATOM     30  CG  HIS A   3      20.417  11.675  -3.835  1.00  0.00     0.061 A 
ATOM     31  ND1 HIS A   3      19.570  11.818  -2.795  1.00  0.00    -0.242 NA
ATOM     32  CD2 HIS A   3      21.499  10.912  -3.455  1.00  0.00     0.107 A 
ATOM     33  CE1 HIS A   3      20.162  11.129  -1.798  1.00  0.00     0.196 A 
ATOM     34  NE2 HIS A   3      21.330  10.570  -2.170  1.00  0.00    -0.351 N 
ATOM     35  H   UNL     1      21.965   9.987  -1.582  1.00  0.00     0.167 HD
ENDBRANCH  29  30
ENDBRANCH   5  29
ENDBRANCH   1   5
BRANCH   3  36
ATOM     36  CA  VAL A   4      21.339   8.747  -8.151  1.00  0.00     0.174 C 
BRANCH  36  37
ATOM     37  C   VAL A   4      22.709   9.206  -8.524  1.00  0.00     0.243 C 
ATOM     38  N   ARG A   5      23.817   8.708  -7.789  1.00  0.00    -0.343 N 
ATOM     39  O   VAL A   4      22.875  10.031  -9.464  1.00  0.00    -0.273 OA
ATOM     40  H   UNL     1      23.662   7.982  -7.051  1.00  0.00     0.164 HD
BRANCH  38  41
ATOM     41  CA  ARG A   5      25.181   9.117  -8.072  1.00  0.00     0.171 C 
BRANCH  41  42
ATOM     42  C   ARG A   5      25.900   7.967  -8.686  1.00  0.00     0.243 C 
ATOM     43  N   ASN A   6      25.914   7.865 -10.103  1.00  0.00    -0.341 N 
ATOM     44  O   ARG A   5      26.449   7.087  -7.970  1.00  0.00    -0.273 OA
ATOM     45  H   UNL     1      25.491   8.649 -10.651  1.00  0.00     0.164 HD
BRANCH  43  46
ATOM     46  CA  ASN A   6      26.543   6.751 -10.804  1.00  0.00     0.201 C 
BRANCH  46  47
ATOM     47  C   ASN A   6      27.993   6.642 -10.416  1.00  0.00     0.326 C 
ATOM     48  O   ASN A   6      28.794   7.579 -10.677  1.00  0.00    -0.250 OA
BRANCH  47  49
ATOM     49  OXT ASN A   6      28.452   5.498  -9.771  1.00  0.00    -0.480 OA
ATOM     50  H   UNL     1      29.425   5.408  -9.502  1.00  0.00     0.296 HD
ENDBRANCH  47  49
ENDBRANCH  46  47
BRANCH  46  51
ATOM     51  CB  ASN A   6      26.425   6.947 -12.324  1.00  0.00     0.136 C 
BRANCH  51  52
ATOM     52  CG  ASN A   6      25.010   7.181 -12.773  1.00  0.00     0.220 C 
ATOM     53  ND2 ASN A   6      24.754   8.091 -13.834  1.00  0.00    -0.370 N 
ATOM     54  OD1 ASN A   6      24.053   6.559 -12.242  1.00  0.00    -0.275 OA
ATOM     55  H   UNL     1      23.775   8.258 -14.157  1.00  0.00     0.159 HD
ATOM     56  H   UNL     1      25.533   8.599 -14.307  1.00  0.00     0.159 HD
ENDBRANCH  51  52
ENDBRANCH  46  51
ENDBRANCH  43  46
ENDBRANCH  41  42
BRANCH  41  57
ATOM     57  CB  ARG A   5      25.856   9.600  -6.793  1.00  0.00     0.037 C 
BRANCH  57  58
ATOM     58  CG  ARG A   5      25.164  10.859  -6.272  1.00  0.00     0.024 C 
BRANCH  58  59
ATOM     59  CD  ARG A   5      25.839  11.390  -5.015  1.00  0.00     0.116 C 
BRANCH  59  60
ATOM     60  NE  ARG A   5      25.378  10.684  -3.823  1.00  0.00    -0.357 N 
ATOM     61  CZ  ARG A   5      25.468  11.279  -2.527  1.00  0.00     0.185 C 
ATOM     62  NH2 ARG A   5      26.103  12.542  -2.351  1.00  0.00    -0.370 N 
ATOM     63  H   UNL     1      24.906   9.756  -3.921  1.00  0.00     0.163 HD
ATOM     64  H   UNL     1      26.688  12.985  -3.092  1.00  0.00     0.159 HD
ATOM     65  H   UNL     1      26.081  13.008  -1.416  1.00  0.00     0.159 HD
BRANCH  61  66
ATOM     66  NH1 ARG A   5      24.962  10.677  -1.499  1.00  0.00    -0.270 NA
ATOM     67  H   UNL     1      24.487   9.750  -1.582  1.00  0.00     0.191 HD
ENDBRANCH  61  66
ENDBRANCH  59  60
ENDBRANCH  58  59
ENDBRANCH  57  58
ENDBRANCH  41  57
ENDBRANCH  38  41
ENDBRANCH  36  37
BRANCH  36  68
ATOM     68  CB  VAL A   4      20.643   8.001  -9.307  1.00  0.00     0.015 C 
ATOM     69  CG1 VAL A   4      21.450   6.772  -9.753  1.00  0.00     0.010 C 
ATOM     70  CG2 VAL A   4      19.223   7.565  -8.908  1.00  0.00     0.010 C 
ENDBRANCH  36  68
ENDBRANCH   3  36
TORSDOF 27
