REMARK SMILES CC(C)C[C@H](NC(=O)[C@H](Cc1ccccc1)NC(=O)[C@@H](N)CO)C(=O)N[C@@H](Cc1c[nH]cn1)C(=O)N[C@@H](CCCNC(=N)N)C(=O)N[C@@H](Cc1c[nH]cn1)C(=O)O
REMARK SMILES IDX 24 1 25 2 26 3 5 5 6 6 7 7 8 8 9 10 17 11 18 12 19 13 20 15
REMARK SMILES IDX 21 16 22 19 23 20 10 22 11 23 12 24 16 25 13 26 15 27 14 28
REMARK SMILES IDX 4 29 2 30 1 31 3 32 27 33 34 34 36 35 35 36 37 38 45 39
REMARK SMILES IDX 47 40 46 41 48 43 55 44 56 45 57 46 49 48 50 49 54 50 51 51
REMARK SMILES IDX 53 52 52 53 38 55 39 56 40 57 41 58 42 59 44 60 43 64 28 66
REMARK SMILES IDX 29 67 33 68 30 69 32 70 31 71
REMARK H PARENT 26 4 6 9 17 14 21 17 21 18 23 21 36 37 47 42 57 47 52 54 41 61
REMARK H PARENT 44 62 44 63 43 65 31 72
ROOT
ATOM      1  C   LEU A   3      20.068  10.084  -6.445  1.00  0.00     0.243 C 
ATOM      2  O   LEU A   3      20.203   9.185  -5.571  1.00  0.00    -0.273 OA
ATOM      3  N   HIS A   4      20.565   9.900  -7.765  1.00  0.00    -0.342 N 
ATOM      4  H   UNL     1      20.393  10.634  -8.490  1.00  0.00     0.164 HD
ENDROOT
BRANCH   1   5
ATOM      5  CA  LEU A   3      19.338  11.340  -6.137  1.00  0.00     0.171 C 
BRANCH   5   6
ATOM      6  N   LEU A   3      18.089  11.027  -5.506  1.00  0.00    -0.343 N 
ATOM      7  C   PHE A   2      16.890  11.743  -5.765  1.00  0.00     0.243 C 
ATOM      8  O   PHE A   2      16.909  12.788  -6.473  1.00  0.00    -0.273 OA
ATOM      9  H   UNL     1      18.161  10.398  -4.684  1.00  0.00     0.164 HD
BRANCH   7  10
ATOM     10  CA  PHE A   2      15.651  11.312  -5.054  1.00  0.00     0.175 C 
BRANCH  10  11
ATOM     11  N   PHE A   2      14.458  11.740  -5.770  1.00  0.00    -0.343 N 
ATOM     12  C   SER A   1      13.915  13.049  -5.637  1.00  0.00     0.239 C 
ATOM     13  O   SER A   1      14.442  13.869  -4.836  1.00  0.00    -0.273 OA
ATOM     14  H   UNL     1      13.879  11.001  -6.223  1.00  0.00     0.164 HD
BRANCH  12  15
ATOM     15  CA  SER A   1      12.661  13.410  -6.390  1.00  0.00     0.167 C 
BRANCH  15  16
ATOM     16  N   SER A   1      12.475  14.863  -6.375  1.00  0.00    -0.318 NA
ATOM     17  H   UNL     1      13.174  15.314  -7.010  1.00  0.00     0.119 HD
ATOM     18  H   UNL     1      11.521  15.089  -6.738  1.00  0.00     0.119 HD
ENDBRANCH  15  16
BRANCH  15  19
ATOM     19  CB  SER A   1      12.688  12.877  -7.844  1.00  0.00     0.184 C 
BRANCH  19  20
ATOM     20  OG  SER A   1      11.436  13.048  -8.450  1.00  0.00    -0.394 OA
ATOM     21  H   UNL     1      11.447  13.936  -8.892  1.00  0.00     0.210 HD
ENDBRANCH  19  20
ENDBRANCH  15  19
ENDBRANCH  12  15
ENDBRANCH  10  11
BRANCH  10  22
ATOM     22  CB  PHE A   2      15.609   9.773  -4.881  1.00  0.00     0.070 C 
BRANCH  22  23
ATOM     23  CG  PHE A   2      14.436   9.291  -4.091  1.00  0.00    -0.045 A 
ATOM     24  CD1 PHE A   2      13.898  10.047  -3.032  1.00  0.00     0.004 A 
ATOM     25  CD2 PHE A   2      13.964   7.990  -4.310  1.00  0.00     0.004 A 
ATOM     26  CE1 PHE A   2      12.865   9.535  -2.258  1.00  0.00     0.000 A 
ATOM     27  CE2 PHE A   2      12.937   7.476  -3.520  1.00  0.00     0.000 A 
ATOM     28  CZ  PHE A   2      12.384   8.251  -2.500  1.00  0.00     0.000 A 
ENDBRANCH  22  23
ENDBRANCH  10  22
ENDBRANCH   7  10
ENDBRANCH   5   6
BRANCH   5  29
ATOM     29  CB  LEU A   3      20.158  12.342  -5.314  1.00  0.00     0.038 C 
BRANCH  29  30
ATOM     30  CG  LEU A   3      20.434  12.204  -3.790  1.00  0.00    -0.015 C 
ATOM     31  CD1 LEU A   3      21.822  11.746  -3.388  1.00  0.00     0.007 C 
ATOM     32  CD2 LEU A   3      19.302  11.894  -2.821  1.00  0.00     0.007 C 
ENDBRANCH  29  30
ENDBRANCH   5  29
ENDBRANCH   1   5
BRANCH   3  33
ATOM     33  CA  HIS A   4      21.349   8.741  -8.143  1.00  0.00     0.177 C 
BRANCH  33  34
ATOM     34  C   HIS A   4      22.713   9.204  -8.522  1.00  0.00     0.243 C 
ATOM     35  N   ARG A   5      23.822   8.711  -7.785  1.00  0.00    -0.343 N 
ATOM     36  O   HIS A   4      22.875  10.027  -9.464  1.00  0.00    -0.273 OA
ATOM     37  H   UNL     1      23.668   7.995  -7.038  1.00  0.00     0.164 HD
BRANCH  35  38
ATOM     38  CA  ARG A   5      25.184   9.117  -8.070  1.00  0.00     0.171 C 
BRANCH  38  39
ATOM     39  C   ARG A   5      25.899   7.966  -8.686  1.00  0.00     0.243 C 
ATOM     40  N   HIS A   6      25.904   7.866 -10.103  1.00  0.00    -0.341 N 
ATOM     41  O   ARG A   5      26.449   7.084  -7.973  1.00  0.00    -0.273 OA
ATOM     42  H   UNL     1      25.495   8.663 -10.638  1.00  0.00     0.164 HD
BRANCH  40  43
ATOM     43  CA  HIS A   6      26.530   6.762 -10.822  1.00  0.00     0.198 C 
BRANCH  43  44
ATOM     44  C   HIS A   6      27.979   6.641 -10.425  1.00  0.00     0.326 C 
ATOM     45  O   HIS A   6      28.789   7.574 -10.677  1.00  0.00    -0.250 OA
BRANCH  44  46
ATOM     46  OXT HIS A   6      28.426   5.492  -9.781  1.00  0.00    -0.480 OA
ATOM     47  H   UNL     1      29.396   5.394  -9.506  1.00  0.00     0.296 HD
ENDBRANCH  44  46
ENDBRANCH  43  44
BRANCH  43  48
ATOM     48  CB  HIS A   6      26.425   6.996 -12.338  1.00  0.00     0.094 C 
BRANCH  48  49
ATOM     49  CG  HIS A   6      25.006   7.152 -12.810  1.00  0.00     0.061 A 
ATOM     50  ND1 HIS A   6      24.215   6.119 -13.159  1.00  0.00    -0.242 NA
ATOM     51  CD2 HIS A   6      24.355   8.342 -13.057  1.00  0.00     0.107 A 
ATOM     52  CE1 HIS A   6      23.088   6.710 -13.609  1.00  0.00     0.196 A 
ATOM     53  NE2 HIS A   6      23.143   8.054 -13.552  1.00  0.00    -0.351 N 
ATOM     54  H   UNL     1      22.404   8.729 -13.847  1.00  0.00     0.167 HD
ENDBRANCH  48  49
ENDBRANCH  43  48
ENDBRANCH  40  43
ENDBRANCH  38  39
BRANCH  38  55
ATOM     55  CB  ARG A   5      25.860   9.601  -6.792  1.00  0.00     0.037 C 
BRANCH  55  56
ATOM     56  CG  ARG A   5      25.164  10.857  -6.269  1.00  0.00     0.024 C 
BRANCH  56  57
ATOM     57  CD  ARG A   5      25.838  11.390  -5.013  1.00  0.00     0.116 C 
BRANCH  57  58
ATOM     58  NE  ARG A   5      25.376  10.687  -3.820  1.00  0.00    -0.357 N 
ATOM     59  CZ  ARG A   5      25.468  11.282  -2.526  1.00  0.00     0.185 C 
ATOM     60  NH2 ARG A   5      26.108  12.546  -2.352  1.00  0.00    -0.370 N 
ATOM     61  H   UNL     1      24.890   9.765  -3.911  1.00  0.00     0.163 HD
ATOM     62  H   UNL     1      26.081  13.023  -1.423  1.00  0.00     0.159 HD
ATOM     63  H   UNL     1      26.696  12.982  -3.094  1.00  0.00     0.159 HD
BRANCH  59  64
ATOM     64  NH1 ARG A   5      24.954  10.672  -1.506  1.00  0.00    -0.270 NA
ATOM     65  H   UNL     1      24.996  11.076  -0.544  1.00  0.00     0.191 HD
ENDBRANCH  59  64
ENDBRANCH  57  58
ENDBRANCH  56  57
ENDBRANCH  55  56
ENDBRANCH  38  55
ENDBRANCH  35  38
ENDBRANCH  33  34
BRANCH  33  66
ATOM     66  CB  HIS A   4      20.663   7.992  -9.289  1.00  0.00     0.093 C 
BRANCH  66  67
ATOM     67  CG  HIS A   4      21.417   6.768  -9.740  1.00  0.00     0.061 A 
ATOM     68  ND1 HIS A   4      21.321   6.263 -10.986  1.00  0.00    -0.242 NA
ATOM     69  CD2 HIS A   4      22.130   5.890  -8.944  1.00  0.00     0.107 A 
ATOM     70  CE1 HIS A   4      22.010   5.104 -10.928  1.00  0.00     0.196 A 
ATOM     71  NE2 HIS A   4      22.513   4.856  -9.706  1.00  0.00    -0.351 N 
ATOM     72  H   UNL     1      23.063   4.021  -9.407  1.00  0.00     0.167 HD
ENDBRANCH  66  67
ENDBRANCH  33  66
ENDBRANCH   3  33
TORSDOF 28
