REMARK SMILES CC(C)C[C@H](NC(=O)[C@H](Cc1ccccc1)NC(=O)[C@@H](N)Cc1c[nH]cn1)C(=O)N[C@@H](CCCCN)C(=O)N[C@@H](CCCNC(=N)N)C(=O)N[C@@H](CC(N)=O)C(=O)O
REMARK SMILES IDX 28 1 29 2 30 3 5 5 6 6 7 7 8 8 9 10 17 11 18 12 19 13 20 15
REMARK SMILES IDX 21 16 22 19 23 20 27 21 24 22 26 23 25 24 10 26 11 27 12 28
REMARK SMILES IDX 16 29 13 30 15 31 14 32 4 33 2 34 1 35 3 36 31 37 37 38
REMARK SMILES IDX 39 39 38 40 40 42 48 43 50 44 49 45 51 47 56 48 57 49 58 50
REMARK SMILES IDX 52 52 53 53 54 54 55 55 41 58 42 59 43 60 44 61 45 62 47 63
REMARK SMILES IDX 46 67 32 69 33 70 34 71 35 72 36 73
REMARK H PARENT 30 4 6 9 17 14 21 17 21 18 25 25 39 41 50 46 58 51 54 56 54 57
REMARK H PARENT 44 64 47 65 47 66 46 68 36 74 36 75
ROOT
ATOM      1  C   LEU A   3      20.051  10.088  -6.476  1.00  0.00     0.243 C 
ATOM      2  O   LEU A   3      20.161   9.162  -5.624  1.00  0.00    -0.273 OA
ATOM      3  N   LYS A   4      20.567   9.924  -7.785  1.00  0.00    -0.343 N 
ATOM      4  H   UNL     1      20.404  10.666  -8.504  1.00  0.00     0.164 HD
ENDROOT
BRANCH   1   5
ATOM      5  CA  LEU A   3      19.339  11.356  -6.145  1.00  0.00     0.171 C 
BRANCH   5   6
ATOM      6  N   LEU A   3      18.082  11.021  -5.535  1.00  0.00    -0.343 N 
ATOM      7  C   PHE A   2      16.887  11.746  -5.775  1.00  0.00     0.243 C 
ATOM      8  O   PHE A   2      16.909  12.800  -6.469  1.00  0.00    -0.273 OA
ATOM      9  H   UNL     1      18.153  10.388  -4.715  1.00  0.00     0.164 HD
BRANCH   7  10
ATOM     10  CA  PHE A   2      15.649  11.314  -5.063  1.00  0.00     0.175 C 
BRANCH  10  11
ATOM     11  N   PHE A   2      14.462  11.746  -5.785  1.00  0.00    -0.343 N 
ATOM     12  C   HIS A   1      13.909  13.049  -5.625  1.00  0.00     0.237 C 
ATOM     13  O   HIS A   1      14.441  13.861  -4.820  1.00  0.00    -0.273 OA
ATOM     14  H   UNL     1      13.979  11.052  -6.396  1.00  0.00     0.164 HD
BRANCH  12  15
ATOM     15  CA  HIS A   1      12.660  13.424  -6.385  1.00  0.00     0.147 C 
BRANCH  15  16
ATOM     16  N   HIS A   1      12.483  14.877  -6.386  1.00  0.00    -0.320 NA
ATOM     17  H   UNL     1      11.598  15.106  -6.895  1.00  0.00     0.119 HD
ATOM     18  H   UNL     1      12.324  15.193  -5.401  1.00  0.00     0.119 HD
ENDBRANCH  15  16
BRANCH  15  19
ATOM     19  CB  HIS A   1      12.670  12.890  -7.839  1.00  0.00     0.086 C 
BRANCH  19  20
ATOM     20  CG  HIS A   1      13.915  13.257  -8.596  1.00  0.00     0.060 A 
ATOM     21  ND1 HIS A   1      14.897  12.384  -8.896  1.00  0.00    -0.242 NA
ATOM     22  CD2 HIS A   1      14.245  14.510  -9.062  1.00  0.00     0.107 A 
ATOM     23  CE1 HIS A   1      15.810  13.134  -9.548  1.00  0.00     0.196 A 
ATOM     24  NE2 HIS A   1      15.441  14.424  -9.662  1.00  0.00    -0.351 N 
ATOM     25  H   UNL     1      15.976  15.196 -10.119  1.00  0.00     0.167 HD
ENDBRANCH  19  20
ENDBRANCH  15  19
ENDBRANCH  12  15
ENDBRANCH  10  11
BRANCH  10  26
ATOM     26  CB  PHE A   2      15.602   9.775  -4.890  1.00  0.00     0.070 C 
BRANCH  26  27
ATOM     27  CG  PHE A   2      14.431   9.295  -4.097  1.00  0.00    -0.045 A 
ATOM     28  CD1 PHE A   2      13.896  10.050  -3.036  1.00  0.00     0.004 A 
ATOM     29  CD2 PHE A   2      13.962   7.992  -4.312  1.00  0.00     0.004 A 
ATOM     30  CE1 PHE A   2      12.866   9.536  -2.259  1.00  0.00     0.000 A 
ATOM     31  CE2 PHE A   2      12.938   7.477  -3.519  1.00  0.00     0.000 A 
ATOM     32  CZ  PHE A   2      12.385   8.252  -2.499  1.00  0.00     0.000 A 
ENDBRANCH  26  27
ENDBRANCH  10  26
ENDBRANCH   7  10
ENDBRANCH   5   6
BRANCH   5  33
ATOM     33  CB  LEU A   3      20.163  12.254  -5.214  1.00  0.00     0.038 C 
BRANCH  33  34
ATOM     34  CG  LEU A   3      20.417  11.680  -3.790  1.00  0.00    -0.015 C 
ATOM     35  CD1 LEU A   3      21.819  12.066  -3.316  1.00  0.00     0.007 C 
ATOM     36  CD2 LEU A   3      19.369  12.170  -2.779  1.00  0.00     0.007 C 
ENDBRANCH  33  34
ENDBRANCH   5  33
ENDBRANCH   1   5
BRANCH   3  37
ATOM     37  CA  LYS A   4      21.348   8.761  -8.150  1.00  0.00     0.171 C 
BRANCH  37  38
ATOM     38  C   LYS A   4      22.715   9.216  -8.525  1.00  0.00     0.243 C 
ATOM     39  N   ARG A   5      23.822   8.720  -7.787  1.00  0.00    -0.343 N 
ATOM     40  O   LYS A   4      22.881  10.034  -9.471  1.00  0.00    -0.273 OA
ATOM     41  H   UNL     1      23.665   8.028  -7.019  1.00  0.00     0.164 HD
BRANCH  39  42
ATOM     42  CA  ARG A   5      25.186   9.121  -8.073  1.00  0.00     0.171 C 
BRANCH  42  43
ATOM     43  C   ARG A   5      25.900   7.967  -8.685  1.00  0.00     0.243 C 
ATOM     44  N   ASN A   6      25.913   7.864 -10.102  1.00  0.00    -0.341 N 
ATOM     45  O   ARG A   5      26.447   7.086  -7.969  1.00  0.00    -0.273 OA
ATOM     46  H   UNL     1      25.489   8.647 -10.651  1.00  0.00     0.164 HD
BRANCH  44  47
ATOM     47  CA  ASN A   6      26.542   6.751 -10.804  1.00  0.00     0.201 C 
BRANCH  47  48
ATOM     48  C   ASN A   6      27.993   6.642 -10.416  1.00  0.00     0.326 C 
ATOM     49  O   ASN A   6      28.794   7.579 -10.677  1.00  0.00    -0.250 OA
BRANCH  48  50
ATOM     50  OXT ASN A   6      28.451   5.499  -9.768  1.00  0.00    -0.480 OA
ATOM     51  H   UNL     1      29.424   5.409  -9.499  1.00  0.00     0.296 HD
ENDBRANCH  48  50
ENDBRANCH  47  48
BRANCH  47  52
ATOM     52  CB  ASN A   6      26.425   6.947 -12.323  1.00  0.00     0.136 C 
BRANCH  52  53
ATOM     53  CG  ASN A   6      25.011   7.181 -12.773  1.00  0.00     0.220 C 
ATOM     54  ND2 ASN A   6      24.754   8.091 -13.834  1.00  0.00    -0.370 N 
ATOM     55  OD1 ASN A   6      24.053   6.558 -12.243  1.00  0.00    -0.275 OA
ATOM     56  H   UNL     1      25.533   8.600 -14.306  1.00  0.00     0.159 HD
ATOM     57  H   UNL     1      23.775   8.258 -14.157  1.00  0.00     0.159 HD
ENDBRANCH  52  53
ENDBRANCH  47  52
ENDBRANCH  44  47
ENDBRANCH  42  43
BRANCH  42  58
ATOM     58  CB  ARG A   5      25.862   9.605  -6.795  1.00  0.00     0.037 C 
BRANCH  58  59
ATOM     59  CG  ARG A   5      25.166  10.860  -6.271  1.00  0.00     0.024 C 
BRANCH  59  60
ATOM     60  CD  ARG A   5      25.839  11.392  -5.014  1.00  0.00     0.116 C 
BRANCH  60  61
ATOM     61  NE  ARG A   5      25.378  10.684  -3.823  1.00  0.00    -0.357 N 
ATOM     62  CZ  ARG A   5      25.468  11.279  -2.527  1.00  0.00     0.185 C 
ATOM     63  NH2 ARG A   5      26.105  12.541  -2.350  1.00  0.00    -0.370 N 
ATOM     64  H   UNL     1      24.899   9.759  -3.922  1.00  0.00     0.163 HD
ATOM     65  H   UNL     1      26.081  13.007  -1.415  1.00  0.00     0.159 HD
ATOM     66  H   UNL     1      26.692  12.983  -3.090  1.00  0.00     0.159 HD
BRANCH  62  67
ATOM     67  NH1 ARG A   5      24.956  10.679  -1.500  1.00  0.00    -0.270 NA
ATOM     68  H   UNL     1      24.474   9.757  -1.584  1.00  0.00     0.191 HD
ENDBRANCH  62  67
ENDBRANCH  60  61
ENDBRANCH  59  60
ENDBRANCH  58  59
ENDBRANCH  42  58
ENDBRANCH  39  42
ENDBRANCH  37  38
BRANCH  37  69
ATOM     69  CB  LYS A   4      20.658   8.006  -9.288  1.00  0.00     0.035 C 
BRANCH  69  70
ATOM     70  CG  LYS A   4      21.440   6.769  -9.763  1.00  0.00     0.004 C 
BRANCH  70  71
ATOM     71  CD  LYS A   4      21.775   5.756  -8.655  1.00  0.00     0.015 C 
BRANCH  71  72
ATOM     72  CE  LYS A   4      20.526   5.192  -7.956  1.00  0.00     0.077 C 
BRANCH  72  73
ATOM     73  NZ  LYS A   4      20.877   4.116  -7.032  1.00  0.00    -0.330 NA
ATOM     74  H   UNL     1      21.345   3.348  -7.567  1.00  0.00     0.118 HD
ATOM     75  H   UNL     1      21.564   4.482  -6.333  1.00  0.00     0.118 HD
ENDBRANCH  72  73
ENDBRANCH  71  72
ENDBRANCH  70  71
ENDBRANCH  69  70
ENDBRANCH  37  69
ENDBRANCH   3  37
TORSDOF 31
