REMARK SMILES CC(C)C[C@H](NC(=O)[C@H](Cc1ccccc1)NC(=O)[C@@H](N)CO)C(=O)N[C@@H](CO)C(=O)N[C@@H](CCCNC(=N)N)C(=O)N[C@@H](CCCCN)C(=O)O
REMARK SMILES IDX 30 1 31 2 32 3 27 5 26 6 24 7 25 8 5 10 6 11 7 12 8 13 9 15
REMARK SMILES IDX 17 16 18 17 19 18 20 20 21 21 22 24 23 25 10 27 11 28 12 29
REMARK SMILES IDX 16 30 13 31 15 32 14 33 4 34 2 35 1 36 3 37 28 38 29 39
REMARK SMILES IDX 33 41 41 42 43 43 42 44 44 46 50 47 51 48 52 49 45 51 46 52
REMARK SMILES IDX 47 53 48 54 49 55 34 58 35 59 36 60 37 61 38 62 40 63 39 67
REMARK H PARENT 32 4 26 9 6 14 17 19 21 22 21 23 23 26 29 40 43 45 52 50 49 56
REMARK H PARENT 49 57 37 64 40 65 40 66 39 68
ROOT
ATOM      1  C   SER A   4      22.708   9.194  -8.525  1.00  0.00     0.245 C 
ATOM      2  O   SER A   4      22.872  10.022  -9.464  1.00  0.00    -0.273 OA
ATOM      3  N   ARG A   5      23.817   8.707  -7.784  1.00  0.00    -0.342 N 
ATOM      4  H   UNL     1      23.664   7.985  -7.043  1.00  0.00     0.164 HD
ENDROOT
BRANCH   1   5
ATOM      5  CA  SER A   4      21.342   8.739  -8.145  1.00  0.00     0.197 C 
BRANCH   5   6
ATOM      6  N   SER A   4      20.567   9.902  -7.762  1.00  0.00    -0.340 N 
ATOM      7  C   LEU A   3      20.069  10.083  -6.443  1.00  0.00     0.243 C 
ATOM      8  O   LEU A   3      20.203   9.184  -5.570  1.00  0.00    -0.273 OA
ATOM      9  H   UNL     1      20.400  10.640  -8.484  1.00  0.00     0.164 HD
BRANCH   7  10
ATOM     10  CA  LEU A   3      19.338  11.340  -6.136  1.00  0.00     0.171 C 
BRANCH  10  11
ATOM     11  N   LEU A   3      18.089  11.026  -5.505  1.00  0.00    -0.343 N 
ATOM     12  C   PHE A   2      16.889  11.742  -5.765  1.00  0.00     0.243 C 
ATOM     13  O   PHE A   2      16.908  12.788  -6.473  1.00  0.00    -0.273 OA
ATOM     14  H   UNL     1      18.160  10.399  -4.683  1.00  0.00     0.164 HD
BRANCH  12  15
ATOM     15  CA  PHE A   2      15.650  11.311  -5.055  1.00  0.00     0.175 C 
BRANCH  15  16
ATOM     16  N   PHE A   2      14.455  11.740  -5.769  1.00  0.00    -0.343 N 
ATOM     17  C   SER A   1      13.916  13.050  -5.636  1.00  0.00     0.239 C 
ATOM     18  O   SER A   1      14.450  13.869  -4.838  1.00  0.00    -0.273 OA
ATOM     19  H   UNL     1      13.867  11.001  -6.212  1.00  0.00     0.164 HD
BRANCH  17  20
ATOM     20  CA  SER A   1      12.656  13.409  -6.383  1.00  0.00     0.167 C 
BRANCH  20  21
ATOM     21  N   SER A   1      12.468  14.862  -6.381  1.00  0.00    -0.318 NA
ATOM     22  H   UNL     1      11.581  15.086  -6.889  1.00  0.00     0.119 HD
ATOM     23  H   UNL     1      12.305  15.173  -5.396  1.00  0.00     0.119 HD
ENDBRANCH  20  21
BRANCH  20  24
ATOM     24  CB  SER A   1      12.695  12.893  -7.842  1.00  0.00     0.184 C 
BRANCH  24  25
ATOM     25  OG  SER A   1      11.440  13.037  -8.449  1.00  0.00    -0.394 OA
ATOM     26  H   UNL     1      10.855  12.333  -8.065  1.00  0.00     0.210 HD
ENDBRANCH  24  25
ENDBRANCH  20  24
ENDBRANCH  17  20
ENDBRANCH  15  16
BRANCH  15  27
ATOM     27  CB  PHE A   2      15.608   9.772  -4.883  1.00  0.00     0.070 C 
BRANCH  27  28
ATOM     28  CG  PHE A   2      14.435   9.291  -4.091  1.00  0.00    -0.045 A 
ATOM     29  CD1 PHE A   2      13.898  10.047  -3.032  1.00  0.00     0.004 A 
ATOM     30  CD2 PHE A   2      13.963   7.990  -4.310  1.00  0.00     0.004 A 
ATOM     31  CE1 PHE A   2      12.866   9.535  -2.258  1.00  0.00     0.000 A 
ATOM     32  CE2 PHE A   2      12.937   7.476  -3.520  1.00  0.00     0.000 A 
ATOM     33  CZ  PHE A   2      12.384   8.251  -2.500  1.00  0.00     0.000 A 
ENDBRANCH  27  28
ENDBRANCH  15  27
ENDBRANCH  12  15
ENDBRANCH  10  11
BRANCH  10  34
ATOM     34  CB  LEU A   3      20.157  12.343  -5.314  1.00  0.00     0.038 C 
BRANCH  34  35
ATOM     35  CG  LEU A   3      20.434  12.204  -3.789  1.00  0.00    -0.015 C 
ATOM     36  CD1 LEU A   3      21.822  11.746  -3.387  1.00  0.00     0.007 C 
ATOM     37  CD2 LEU A   3      19.302  11.894  -2.821  1.00  0.00     0.007 C 
ENDBRANCH  34  35
ENDBRANCH  10  34
ENDBRANCH   7  10
ENDBRANCH   5   6
BRANCH   5  38
ATOM     38  CB  SER A   4      20.662   8.002  -9.294  1.00  0.00     0.191 C 
BRANCH  38  39
ATOM     39  OG  SER A   4      19.406   7.539  -8.882  1.00  0.00    -0.394 OA
ATOM     40  H   UNL     1      19.013   7.074  -9.666  1.00  0.00     0.210 HD
ENDBRANCH  38  39
ENDBRANCH   5  38
ENDBRANCH   1   5
BRANCH   3  41
ATOM     41  CA  ARG A   5      25.180   9.119  -8.067  1.00  0.00     0.171 C 
BRANCH  41  42
ATOM     42  C   ARG A   5      25.900   7.970  -8.683  1.00  0.00     0.243 C 
ATOM     43  N   LYS A   6      25.933   7.887 -10.101  1.00  0.00    -0.341 N 
ATOM     44  O   ARG A   5      26.441   7.081  -7.972  1.00  0.00    -0.273 OA
ATOM     45  H   UNL     1      25.643   8.739 -10.631  1.00  0.00     0.164 HD
BRANCH  43  46
ATOM     46  CA  LYS A   6      26.537   6.770 -10.816  1.00  0.00     0.192 C 
BRANCH  46  47
ATOM     47  C   LYS A   6      27.987   6.641 -10.428  1.00  0.00     0.326 C 
ATOM     48  O   LYS A   6      28.797   7.574 -10.677  1.00  0.00    -0.250 OA
BRANCH  47  49
ATOM     49  OXT LYS A   6      28.434   5.484  -9.797  1.00  0.00    -0.480 OA
ATOM     50  H   UNL     1      29.405   5.381  -9.529  1.00  0.00     0.296 HD
ENDBRANCH  47  49
ENDBRANCH  46  47
BRANCH  46  51
ATOM     51  CB  LYS A   6      26.423   6.994 -12.334  1.00  0.00     0.037 C 
BRANCH  51  52
ATOM     52  CG  LYS A   6      24.963   7.124 -12.808  1.00  0.00     0.004 C 
BRANCH  52  53
ATOM     53  CD  LYS A   6      24.849   7.416 -14.315  1.00  0.00     0.015 C 
BRANCH  53  54
ATOM     54  CE  LYS A   6      25.387   6.303 -15.236  1.00  0.00     0.077 C 
BRANCH  54  55
ATOM     55  NZ  LYS A   6      24.706   5.025 -15.037  1.00  0.00    -0.330 NA
ATOM     56  H   UNL     1      25.013   4.609 -14.129  1.00  0.00     0.118 HD
ATOM     57  H   UNL     1      23.673   5.183 -14.993  1.00  0.00     0.118 HD
ENDBRANCH  54  55
ENDBRANCH  53  54
ENDBRANCH  52  53
ENDBRANCH  51  52
ENDBRANCH  46  51
ENDBRANCH  43  46
ENDBRANCH  41  42
BRANCH  41  58
ATOM     58  CB  ARG A   5      25.856   9.601  -6.789  1.00  0.00     0.037 C 
BRANCH  58  59
ATOM     59  CG  ARG A   5      25.173  10.865  -6.265  1.00  0.00     0.024 C 
BRANCH  59  60
ATOM     60  CD  ARG A   5      25.851  11.381  -5.001  1.00  0.00     0.116 C 
BRANCH  60  61
ATOM     61  NE  ARG A   5      25.361  10.681  -3.816  1.00  0.00    -0.357 N 
ATOM     62  CZ  ARG A   5      25.464  11.277  -2.527  1.00  0.00     0.185 C 
ATOM     63  NH2 ARG A   5      26.094  12.548  -2.386  1.00  0.00    -0.370 N 
ATOM     64  H   UNL     1      24.867   9.764  -3.910  1.00  0.00     0.163 HD
ATOM     65  H   UNL     1      26.177  13.017  -1.457  1.00  0.00     0.159 HD
ATOM     66  H   UNL     1      26.177  13.017  -1.457  1.00  0.00     0.159 HD
BRANCH  62  67
ATOM     67  NH1 ARG A   5      24.965  10.670  -1.497  1.00  0.00    -0.270 NA
ATOM     68  H   UNL     1      25.012  11.078  -0.537  1.00  0.00     0.191 HD
ENDBRANCH  62  67
ENDBRANCH  60  61
ENDBRANCH  59  60
ENDBRANCH  58  59
ENDBRANCH  41  58
ENDBRANCH   3  41
TORSDOF 31
