REMARK SMILES CC(C)C[C@H](NC(=O)[C@H](Cc1ccccc1)NC(=O)[C@@H](N)CO)C(=O)N[C@@H](CC(N)=O)C(=O)N[C@@H](CCCNC(=N)N)C(=O)N[C@@H](CC(N)=O)C(=O)O
REMARK SMILES IDX 24 1 25 2 26 3 5 5 6 6 7 7 8 8 9 10 17 11 18 12 19 13 20 15
REMARK SMILES IDX 21 16 22 19 23 20 10 22 11 23 12 24 16 25 13 26 15 27 14 28
REMARK SMILES IDX 4 29 2 30 1 31 3 32 27 33 32 34 34 35 33 36 35 38 43 39
REMARK SMILES IDX 45 40 44 41 46 43 51 44 52 45 53 46 47 48 48 49 49 50 50 51
REMARK SMILES IDX 36 54 37 55 38 56 39 57 40 58 42 59 41 63 28 65 29 66 30 67
REMARK SMILES IDX 31 68
REMARK H PARENT 26 4 6 9 17 14 21 17 21 18 23 21 34 37 45 42 53 47 49 52 49 53
REMARK H PARENT 39 60 42 61 42 62 41 64 30 69 30 70
ROOT
ATOM      1  C   LEU A   3      20.054  10.083  -6.476  1.00  0.00     0.243 C 
ATOM      2  O   LEU A   3      20.164   9.159  -5.623  1.00  0.00    -0.273 OA
ATOM      3  N   ASN A   4      20.569   9.913  -7.784  1.00  0.00    -0.342 N 
ATOM      4  H   UNL     1      20.407  10.655  -8.504  1.00  0.00     0.164 HD
ENDROOT
BRANCH   1   5
ATOM      5  CA  LEU A   3      19.340  11.353  -6.147  1.00  0.00     0.171 C 
BRANCH   5   6
ATOM      6  N   LEU A   3      18.083  11.020  -5.538  1.00  0.00    -0.343 N 
ATOM      7  C   PHE A   2      16.886  11.745  -5.776  1.00  0.00     0.243 C 
ATOM      8  O   PHE A   2      16.905  12.796  -6.475  1.00  0.00    -0.273 OA
ATOM      9  H   UNL     1      18.155  10.387  -4.718  1.00  0.00     0.164 HD
BRANCH   7  10
ATOM     10  CA  PHE A   2      15.651  11.313  -5.057  1.00  0.00     0.175 C 
BRANCH  10  11
ATOM     11  N   PHE A   2      14.453  11.738  -5.768  1.00  0.00    -0.343 N 
ATOM     12  C   SER A   1      13.914  13.049  -5.637  1.00  0.00     0.239 C 
ATOM     13  O   SER A   1      14.447  13.869  -4.839  1.00  0.00    -0.273 OA
ATOM     14  H   UNL     1      13.865  10.998  -6.208  1.00  0.00     0.164 HD
BRANCH  12  15
ATOM     15  CA  SER A   1      12.655  13.408  -6.387  1.00  0.00     0.167 C 
BRANCH  15  16
ATOM     16  N   SER A   1      12.467  14.861  -6.384  1.00  0.00    -0.318 NA
ATOM     17  H   UNL     1      12.302  15.171  -5.398  1.00  0.00     0.119 HD
ATOM     18  H   UNL     1      11.583  15.087  -6.894  1.00  0.00     0.119 HD
ENDBRANCH  15  16
BRANCH  15  19
ATOM     19  CB  SER A   1      12.699  12.894  -7.844  1.00  0.00     0.184 C 
BRANCH  19  20
ATOM     20  OG  SER A   1      11.440  13.041  -8.440  1.00  0.00    -0.394 OA
ATOM     21  H   UNL     1      11.550  12.779  -9.392  1.00  0.00     0.210 HD
ENDBRANCH  19  20
ENDBRANCH  15  19
ENDBRANCH  12  15
ENDBRANCH  10  11
BRANCH  10  22
ATOM     22  CB  PHE A   2      15.610   9.773  -4.880  1.00  0.00     0.070 C 
BRANCH  22  23
ATOM     23  CG  PHE A   2      14.435   9.292  -4.091  1.00  0.00    -0.045 A 
ATOM     24  CD1 PHE A   2      13.898  10.048  -3.033  1.00  0.00     0.004 A 
ATOM     25  CD2 PHE A   2      13.964   7.991  -4.310  1.00  0.00     0.004 A 
ATOM     26  CE1 PHE A   2      12.866   9.535  -2.258  1.00  0.00     0.000 A 
ATOM     27  CE2 PHE A   2      12.937   7.477  -3.520  1.00  0.00     0.000 A 
ATOM     28  CZ  PHE A   2      12.384   8.251  -2.500  1.00  0.00     0.000 A 
ENDBRANCH  22  23
ENDBRANCH  10  22
ENDBRANCH   7  10
ENDBRANCH   5   6
BRANCH   5  29
ATOM     29  CB  LEU A   3      20.164  12.252  -5.216  1.00  0.00     0.038 C 
BRANCH  29  30
ATOM     30  CG  LEU A   3      20.417  11.679  -3.791  1.00  0.00    -0.015 C 
ATOM     31  CD1 LEU A   3      21.819  12.066  -3.317  1.00  0.00     0.007 C 
ATOM     32  CD2 LEU A   3      19.369  12.170  -2.781  1.00  0.00     0.007 C 
ENDBRANCH  29  30
ENDBRANCH   5  29
ENDBRANCH   1   5
BRANCH   3  33
ATOM     33  CA  ASN A   4      21.347   8.746  -8.154  1.00  0.00     0.180 C 
BRANCH  33  34
ATOM     34  C   ASN A   4      22.713   9.202  -8.532  1.00  0.00     0.243 C 
ATOM     35  N   ARG A   5      23.820   8.708  -7.793  1.00  0.00    -0.343 N 
ATOM     36  O   ASN A   4      22.878  10.028  -9.471  1.00  0.00    -0.273 OA
ATOM     37  H   UNL     1      23.666   7.982  -7.055  1.00  0.00     0.164 HD
BRANCH  35  38
ATOM     38  CA  ARG A   5      25.183   9.118  -8.073  1.00  0.00     0.171 C 
BRANCH  38  39
ATOM     39  C   ARG A   5      25.902   7.968  -8.686  1.00  0.00     0.243 C 
ATOM     40  N   ASN A   6      25.915   7.865 -10.103  1.00  0.00    -0.341 N 
ATOM     41  O   ARG A   5      26.450   7.087  -7.970  1.00  0.00    -0.273 OA
ATOM     42  H   UNL     1      25.490   8.648 -10.651  1.00  0.00     0.164 HD
BRANCH  40  43
ATOM     43  CA  ASN A   6      26.544   6.751 -10.805  1.00  0.00     0.201 C 
BRANCH  43  44
ATOM     44  C   ASN A   6      27.994   6.642 -10.415  1.00  0.00     0.326 C 
ATOM     45  O   ASN A   6      28.796   7.579 -10.676  1.00  0.00    -0.250 OA
BRANCH  44  46
ATOM     46  OXT ASN A   6      28.452   5.499  -9.767  1.00  0.00    -0.480 OA
ATOM     47  H   UNL     1      29.424   5.409  -9.498  1.00  0.00     0.296 HD
ENDBRANCH  44  46
ENDBRANCH  43  44
BRANCH  43  48
ATOM     48  CB  ASN A   6      26.430   6.950 -12.325  1.00  0.00     0.136 C 
BRANCH  48  49
ATOM     49  CG  ASN A   6      25.017   7.181 -12.776  1.00  0.00     0.220 C 
ATOM     50  ND2 ASN A   6      24.757   8.092 -13.834  1.00  0.00    -0.370 N 
ATOM     51  OD1 ASN A   6      24.063   6.553 -12.249  1.00  0.00    -0.275 OA
ATOM     52  H   UNL     1      23.777   8.256 -14.158  1.00  0.00     0.159 HD
ATOM     53  H   UNL     1      25.534   8.607 -14.305  1.00  0.00     0.159 HD
ENDBRANCH  48  49
ENDBRANCH  43  48
ENDBRANCH  40  43
ENDBRANCH  38  39
BRANCH  38  54
ATOM     54  CB  ARG A   5      25.857   9.600  -6.793  1.00  0.00     0.037 C 
BRANCH  54  55
ATOM     55  CG  ARG A   5      25.162  10.857  -6.270  1.00  0.00     0.024 C 
BRANCH  55  56
ATOM     56  CD  ARG A   5      25.838  11.390  -5.014  1.00  0.00     0.116 C 
BRANCH  56  57
ATOM     57  NE  ARG A   5      25.377  10.686  -3.820  1.00  0.00    -0.357 N 
ATOM     58  CZ  ARG A   5      25.469  11.281  -2.527  1.00  0.00     0.185 C 
ATOM     59  NH2 ARG A   5      26.107  12.546  -2.352  1.00  0.00    -0.370 N 
ATOM     60  H   UNL     1      24.894   9.763  -3.911  1.00  0.00     0.163 HD
ATOM     61  H   UNL     1      26.080  13.024  -1.424  1.00  0.00     0.159 HD
ATOM     62  H   UNL     1      26.696  12.982  -3.094  1.00  0.00     0.159 HD
BRANCH  58  63
ATOM     63  NH1 ARG A   5      24.955  10.672  -1.507  1.00  0.00    -0.270 NA
ATOM     64  H   UNL     1      24.995  11.077  -0.545  1.00  0.00     0.191 HD
ENDBRANCH  58  63
ENDBRANCH  56  57
ENDBRANCH  55  56
ENDBRANCH  54  55
ENDBRANCH  38  54
ENDBRANCH  35  38
ENDBRANCH  33  34
BRANCH  33  65
ATOM     65  CB  ASN A   4      20.648   7.994  -9.288  1.00  0.00     0.134 C 
BRANCH  65  66
ATOM     66  CG  ASN A   4      21.416   6.789  -9.757  1.00  0.00     0.220 C 
ATOM     67  ND2 ASN A   4      21.824   5.769  -8.844  1.00  0.00    -0.370 N 
ATOM     68  OD1 ASN A   4      21.644   6.646 -10.986  1.00  0.00    -0.275 OA
ATOM     69  H   UNL     1      22.370   4.948  -9.186  1.00  0.00     0.159 HD
ATOM     70  H   UNL     1      21.554   5.806  -7.836  1.00  0.00     0.159 HD
ENDBRANCH  65  66
ENDBRANCH  33  65
ENDBRANCH   3  33
TORSDOF 28
