REMARK SMILES CC(C)C[C@H](NC(=O)CNC(=O)CNC(=O)[C@@H](N)CO)C(=O)N[C@@H](CCCNC(=N)N)C(=O)N[C@@H](CC(N)=O)C(=O)O
REMARK SMILES IDX 7 1 8 2 6 3 9 5 10 6 11 7 12 8 13 10 14 11 15 12 16 13 17 15
REMARK SMILES IDX 18 16 19 19 20 20 5 22 21 23 23 24 22 25 24 27 32 28 34 29
REMARK SMILES IDX 33 30 35 32 40 33 41 34 42 35 36 37 37 38 38 39 39 40 25 43
REMARK SMILES IDX 26 44 27 45 28 46 29 47 31 48 30 52 4 54 2 55 1 56 3 57
REMARK H PARENT 6 4 10 9 14 14 18 17 18 18 20 21 23 26 34 31 42 36 38 41 38 42
REMARK H PARENT 28 49 31 50 31 51 30 53
ROOT
ATOM      1  C   GLY A   3       2.386  -0.142   0.638  1.00  0.00     0.240 C 
ATOM      2  O   GLY A   3       1.615   0.818   0.367  1.00  0.00    -0.273 OA
ATOM      3  N   LEU A   4       2.140  -1.444   0.091  1.00  0.00    -0.343 N 
ATOM      4  H   UNL     1       2.791  -2.224   0.345  1.00  0.00     0.164 HD
ENDROOT
BRANCH   1   5
ATOM      5  CA  GLY A   3       3.587   0.105   1.498  1.00  0.00     0.216 C 
BRANCH   5   6
ATOM      6  N   GLY A   3       4.644   0.737   0.713  1.00  0.00    -0.346 N 
ATOM      7  C   GLY A   2       5.480   0.001  -0.192  1.00  0.00     0.239 C 
ATOM      8  O   GLY A   2       5.352  -1.248  -0.305  1.00  0.00    -0.273 OA
ATOM      9  H   UNL     1       4.810   1.763   0.841  1.00  0.00     0.164 HD
BRANCH   7  10
ATOM     10  CA  GLY A   2       6.497   0.719  -1.025  1.00  0.00     0.216 C 
BRANCH  10  11
ATOM     11  N   GLY A   2       7.394   1.499  -0.175  1.00  0.00    -0.346 N 
ATOM     12  C   SER A   1       8.378   0.890   0.673  1.00  0.00     0.239 C 
ATOM     13  O   SER A   1       8.559  -0.360   0.640  1.00  0.00    -0.273 OA
ATOM     14  H   UNL     1       7.313   2.541  -0.193  1.00  0.00     0.164 HD
BRANCH  12  15
ATOM     15  CA  SER A   1       9.240   1.750   1.564  1.00  0.00     0.167 C 
BRANCH  15  16
ATOM     16  N   SER A   1       9.527   1.055   2.821  1.00  0.00    -0.318 NA
ATOM     17  H   UNL     1      10.057   1.709   3.444  1.00  0.00     0.119 HD
ATOM     18  H   UNL     1       8.618   0.870   3.308  1.00  0.00     0.119 HD
ENDBRANCH  15  16
BRANCH  15  19
ATOM     19  CB  SER A   1      10.546   2.121   0.848  1.00  0.00     0.184 C 
BRANCH  19  20
ATOM     20  OG  SER A   1      11.323   0.977   0.615  1.00  0.00    -0.394 OA
ATOM     21  H   UNL     1      12.147   1.295   0.162  1.00  0.00     0.210 HD
ENDBRANCH  19  20
ENDBRANCH  15  19
ENDBRANCH  12  15
ENDBRANCH  10  11
ENDBRANCH   7  10
ENDBRANCH   5   6
ENDBRANCH   1   5
BRANCH   3  22
ATOM     22  CA  LEU A   4       0.970  -1.731  -0.744  1.00  0.00     0.171 C 
BRANCH  22  23
ATOM     23  C   LEU A   4      -0.262  -1.735   0.121  1.00  0.00     0.243 C 
ATOM     24  N   ARG A   5      -1.328  -0.811  -0.140  1.00  0.00    -0.343 N 
ATOM     25  O   LEU A   4      -0.348  -2.554   1.077  1.00  0.00    -0.273 OA
ATOM     26  H   UNL     1      -1.165  -0.057  -0.847  1.00  0.00     0.164 HD
BRANCH  24  27
ATOM     27  CA  ARG A   5      -2.601  -0.842   0.591  1.00  0.00     0.171 C 
BRANCH  27  28
ATOM     28  C   ARG A   5      -3.772  -0.608  -0.333  1.00  0.00     0.243 C 
ATOM     29  N   ASN A   6      -5.107  -0.876   0.130  1.00  0.00    -0.341 N 
ATOM     30  O   ARG A   5      -3.578  -0.191  -1.507  1.00  0.00    -0.273 OA
ATOM     31  H   UNL     1      -5.224  -1.230   1.107  1.00  0.00     0.164 HD
BRANCH  29  32
ATOM     32  CA  ASN A   6      -6.327  -0.689  -0.669  1.00  0.00     0.201 C 
BRANCH  32  33
ATOM     33  C   ASN A   6      -6.422  -1.706  -1.778  1.00  0.00     0.326 C 
ATOM     34  O   ASN A   6      -5.393  -2.293  -2.212  1.00  0.00    -0.250 OA
BRANCH  33  35
ATOM     35  OXT ASN A   6      -7.663  -1.992  -2.338  1.00  0.00    -0.480 OA
ATOM     36  H   UNL     1      -7.752  -2.672  -3.085  1.00  0.00     0.296 HD
ENDBRANCH  33  35
ENDBRANCH  32  33
BRANCH  32  37
ATOM     37  CB  ASN A   6      -6.428   0.754  -1.203  1.00  0.00     0.136 C 
BRANCH  37  38
ATOM     38  CG  ASN A   6      -7.827   1.098  -1.619  1.00  0.00     0.220 C 
ATOM     39  ND2 ASN A   6      -8.804   1.452  -0.641  1.00  0.00    -0.370 N 
ATOM     40  OD1 ASN A   6      -8.150   1.050  -2.836  1.00  0.00    -0.275 OA
ATOM     41  H   UNL     1      -9.790   1.658  -0.928  1.00  0.00     0.159 HD
ATOM     42  H   UNL     1      -8.567   1.449   0.375  1.00  0.00     0.159 HD
ENDBRANCH  37  38
ENDBRANCH  32  37
ENDBRANCH  29  32
ENDBRANCH  27  28
BRANCH  27  43
ATOM     43  CB  ARG A   5      -2.577   0.132   1.792  1.00  0.00     0.037 C 
BRANCH  43  44
ATOM     44  CG  ARG A   5      -2.165   1.590   1.481  1.00  0.00     0.024 C 
BRANCH  44  45
ATOM     45  CD  ARG A   5      -3.289   2.464   0.902  1.00  0.00     0.116 C 
BRANCH  45  46
ATOM     46  NE  ARG A   5      -4.373   2.676   1.866  1.00  0.00    -0.357 N 
ATOM     47  CZ  ARG A   5      -5.559   3.438   1.568  1.00  0.00     0.185 C 
ATOM     48  NH2 ARG A   5      -6.596   3.533   2.543  1.00  0.00    -0.370 N 
ATOM     49  H   UNL     1      -4.293   2.273   2.826  1.00  0.00     0.163 HD
ATOM     50  H   UNL     1      -7.471   4.065   2.336  1.00  0.00     0.159 HD
ATOM     51  H   UNL     1      -6.491   3.070   3.473  1.00  0.00     0.159 HD
BRANCH  47  52
ATOM     52  NH1 ARG A   5      -5.707   4.045   0.432  1.00  0.00    -0.270 NA
ATOM     53  H   UNL     1      -4.998   4.022  -0.333  1.00  0.00     0.191 HD
ENDBRANCH  47  52
ENDBRANCH  45  46
ENDBRANCH  44  45
ENDBRANCH  43  44
ENDBRANCH  27  43
ENDBRANCH  24  27
ENDBRANCH  22  23
BRANCH  22  54
ATOM     54  CB  LEU A   4       1.155  -3.080  -1.479  1.00  0.00     0.038 C 
BRANCH  54  55
ATOM     55  CG  LEU A   4       0.159  -3.305  -2.649  1.00  0.00    -0.015 C 
ATOM     56  CD1 LEU A   4      -1.202  -3.832  -2.163  1.00  0.00     0.007 C 
ATOM     57  CD2 LEU A   4       0.752  -4.292  -3.665  1.00  0.00     0.007 C 
ENDBRANCH  54  55
ENDBRANCH  22  54
ENDBRANCH   3  22
TORSDOF 24
