REMARK SMILES CC(C)C[C@H](NC(=O)[C@H](CCCCN)NC(=O)[C@H](Cc1ccccc1)NC(=O)[C@@H](N)CO)C(=O)N[C@@H](C)C(=O)N[C@@H](CC(N)=O)C(=O)O
REMARK SMILES IDX 7 1 8 2 6 3 9 5 15 6 16 7 17 8 18 10 26 11 27 12 28 13 29 15
REMARK SMILES IDX 30 16 31 19 32 20 19 22 20 23 21 24 25 25 22 26 24 27 23 28
REMARK SMILES IDX 10 29 11 30 12 31 13 32 14 33 5 36 33 37 35 38 34 39 36 41
REMARK SMILES IDX 37 42 38 43 40 44 39 45 41 47 46 48 47 49 48 50 42 52 43 53
REMARK SMILES IDX 44 54 45 55 4 58 2 59 1 60 3 61
REMARK H PARENT 6 4 15 9 26 14 30 17 30 18 32 21 14 34 14 35 35 40 40 46 48 51
REMARK H PARENT 44 56 44 57
ROOT
ATOM      1  C   LYS A   3      20.036  10.082  -6.471  1.00  0.00     0.243 C 
ATOM      2  O   LYS A   3      20.148   9.160  -5.617  1.00  0.00    -0.273 OA
ATOM      3  N   LEU A   4      20.566   9.921  -7.776  1.00  0.00    -0.343 N 
ATOM      4  H   UNL     1      20.407  10.664  -8.496  1.00  0.00     0.164 HD
ENDROOT
BRANCH   1   5
ATOM      5  CA  LYS A   3      19.335  11.356  -6.141  1.00  0.00     0.171 C 
BRANCH   5   6
ATOM      6  N   LYS A   3      18.085  11.048  -5.497  1.00  0.00    -0.343 N 
ATOM      7  C   PHE A   2      16.884  11.750  -5.772  1.00  0.00     0.243 C 
ATOM      8  O   PHE A   2      16.900  12.792  -6.483  1.00  0.00    -0.273 OA
ATOM      9  H   UNL     1      18.162  10.514  -4.606  1.00  0.00     0.164 HD
BRANCH   7  10
ATOM     10  CA  PHE A   2      15.648  11.313  -5.059  1.00  0.00     0.175 C 
BRANCH  10  11
ATOM     11  N   PHE A   2      14.451  11.740  -5.769  1.00  0.00    -0.343 N 
ATOM     12  C   SER A   1      13.914  13.051  -5.636  1.00  0.00     0.239 C 
ATOM     13  O   SER A   1      14.449  13.870  -4.839  1.00  0.00    -0.273 OA
ATOM     14  H   UNL     1      13.858  11.001  -6.206  1.00  0.00     0.164 HD
BRANCH  12  15
ATOM     15  CA  SER A   1      12.654  13.411  -6.383  1.00  0.00     0.167 C 
BRANCH  15  16
ATOM     16  N   SER A   1      12.467  14.863  -6.382  1.00  0.00    -0.318 NA
ATOM     17  H   UNL     1      12.304  15.175  -5.397  1.00  0.00     0.119 HD
ATOM     18  H   UNL     1      11.581  15.088  -6.891  1.00  0.00     0.119 HD
ENDBRANCH  15  16
BRANCH  15  19
ATOM     19  CB  SER A   1      12.694  12.894  -7.842  1.00  0.00     0.184 C 
BRANCH  19  20
ATOM     20  OG  SER A   1      11.440  13.037  -8.449  1.00  0.00    -0.394 OA
ATOM     21  H   UNL     1      10.855  12.332  -8.065  1.00  0.00     0.210 HD
ENDBRANCH  19  20
ENDBRANCH  15  19
ENDBRANCH  12  15
ENDBRANCH  10  11
BRANCH  10  22
ATOM     22  CB  PHE A   2      15.611   9.774  -4.892  1.00  0.00     0.070 C 
BRANCH  22  23
ATOM     23  CG  PHE A   2      14.443   9.289  -4.090  1.00  0.00    -0.045 A 
ATOM     24  CD1 PHE A   2      13.903  10.046  -3.032  1.00  0.00     0.004 A 
ATOM     25  CD2 PHE A   2      13.968   7.989  -4.310  1.00  0.00     0.004 A 
ATOM     26  CE1 PHE A   2      12.869   9.535  -2.260  1.00  0.00     0.000 A 
ATOM     27  CE2 PHE A   2      12.939   7.477  -3.521  1.00  0.00     0.000 A 
ATOM     28  CZ  PHE A   2      12.386   8.252  -2.502  1.00  0.00     0.000 A 
ENDBRANCH  22  23
ENDBRANCH  10  22
ENDBRANCH   7  10
ENDBRANCH   5   6
BRANCH   5  29
ATOM     29  CB  LYS A   3      20.185  12.254  -5.239  1.00  0.00     0.035 C 
BRANCH  29  30
ATOM     30  CG  LYS A   3      20.426  11.704  -3.813  1.00  0.00     0.004 C 
BRANCH  30  31
ATOM     31  CD  LYS A   3      21.816  12.081  -3.290  1.00  0.00     0.015 C 
BRANCH  31  32
ATOM     32  CE  LYS A   3      21.996  13.591  -3.075  1.00  0.00     0.077 C 
BRANCH  32  33
ATOM     33  NZ  LYS A   3      21.059  14.091  -2.072  1.00  0.00    -0.330 NA
ATOM     34  H   UNL     1      21.338  13.701  -1.142  1.00  0.00     0.118 HD
ATOM     35  H   UNL     1      21.183  15.127  -2.009  1.00  0.00     0.118 HD
ENDBRANCH  32  33
ENDBRANCH  31  32
ENDBRANCH  30  31
ENDBRANCH  29  30
ENDBRANCH   5  29
ENDBRANCH   1   5
BRANCH   3  36
ATOM     36  CA  LEU A   4      21.352   8.760  -8.141  1.00  0.00     0.171 C 
BRANCH  36  37
ATOM     37  C   LEU A   4      22.718   9.219  -8.519  1.00  0.00     0.243 C 
ATOM     38  N   ALA A   5      23.827   8.749  -7.764  1.00  0.00    -0.343 N 
ATOM     39  O   LEU A   4      22.882  10.028  -9.472  1.00  0.00    -0.273 OA
ATOM     40  H   UNL     1      23.671   8.066  -6.988  1.00  0.00     0.164 HD
BRANCH  38  41
ATOM     41  CA  ALA A   5      25.191   9.139  -8.062  1.00  0.00     0.168 C 
ATOM     42  CB  ALA A   5      25.875   9.624  -6.792  1.00  0.00     0.041 C 
BRANCH  41  43
ATOM     43  C   ALA A   5      25.899   7.978  -8.680  1.00  0.00     0.243 C 
ATOM     44  N   ASN A   6      25.910   7.872 -10.098  1.00  0.00    -0.341 N 
ATOM     45  O   ALA A   5      26.444   7.094  -7.965  1.00  0.00    -0.273 OA
ATOM     46  H   UNL     1      25.486   8.655 -10.646  1.00  0.00     0.164 HD
BRANCH  44  47
ATOM     47  CA  ASN A   6      26.539   6.756 -10.800  1.00  0.00     0.201 C 
BRANCH  47  48
ATOM     48  C   ASN A   6      27.990   6.645 -10.412  1.00  0.00     0.326 C 
ATOM     49  O   ASN A   6      28.793   7.579 -10.677  1.00  0.00    -0.250 OA
BRANCH  48  50
ATOM     50  OXT ASN A   6      28.446   5.502  -9.762  1.00  0.00    -0.480 OA
ATOM     51  H   UNL     1      29.418   5.410  -9.493  1.00  0.00     0.296 HD
ENDBRANCH  48  50
ENDBRANCH  47  48
BRANCH  47  52
ATOM     52  CB  ASN A   6      26.423   6.950 -12.320  1.00  0.00     0.136 C 
BRANCH  52  53
ATOM     53  CG  ASN A   6      25.009   7.182 -12.772  1.00  0.00     0.220 C 
ATOM     54  ND2 ASN A   6      24.753   8.090 -13.833  1.00  0.00    -0.370 N 
ATOM     55  OD1 ASN A   6      24.052   6.558 -12.243  1.00  0.00    -0.275 OA
ATOM     56  H   UNL     1      25.533   8.601 -14.305  1.00  0.00     0.159 HD
ATOM     57  H   UNL     1      23.775   8.256 -14.158  1.00  0.00     0.159 HD
ENDBRANCH  52  53
ENDBRANCH  47  52
ENDBRANCH  44  47
ENDBRANCH  41  43
ENDBRANCH  38  41
ENDBRANCH  36  37
BRANCH  36  58
ATOM     58  CB  LEU A   4      20.659   8.000  -9.274  1.00  0.00     0.038 C 
BRANCH  58  59
ATOM     59  CG  LEU A   4      21.450   6.771  -9.769  1.00  0.00    -0.015 C 
ATOM     60  CD1 LEU A   4      21.765   5.780  -8.638  1.00  0.00     0.007 C 
ATOM     61  CD2 LEU A   4      20.662   6.066 -10.877  1.00  0.00     0.007 C 
ENDBRANCH  58  59
ENDBRANCH  36  58
ENDBRANCH   3  36
TORSDOF 26
