REMARK SMILES CC(C)C[C@H](NC(=O)[C@H](CCCNC(=N)N)NC(=O)[C@H](Cc1ccccc1)NC(=O)[C@@H](N)CO)C(=O)N[C@@H](CCCNC(=N)N)C(=O)N[C@@H](CCCNC(=N)N)C(=O)O
REMARK SMILES IDX 35 1 36 2 37 3 5 5 6 6 7 7 8 8 9 10 17 11 18 12 19 13 20 15
REMARK SMILES IDX 28 16 29 17 30 18 31 20 32 21 33 24 34 25 21 27 22 28 23 29
REMARK SMILES IDX 27 30 24 31 26 32 25 33 10 34 11 35 12 36 13 37 14 38 16 39
REMARK SMILES IDX 15 43 4 45 2 46 1 47 3 48 38 49 46 50 48 51 47 52 49 54
REMARK SMILES IDX 57 55 58 56 59 57 50 59 51 60 52 61 53 62 54 63 56 64 55 68
REMARK SMILES IDX 39 70 40 71 41 72 42 73 43 74 45 75 44 79
REMARK H PARENT 37 4 6 9 17 14 28 19 32 22 32 23 34 26 13 40 16 41 16 42 15 44
REMARK H PARENT 48 53 59 58 53 65 56 66 56 67 55 69 42 76 45 77 45 78 44 80
ROOT
ATOM      1  C   LEU A   4      22.714   9.215  -8.522  1.00  0.00     0.243 C 
ATOM      2  O   LEU A   4      22.879  10.032  -9.469  1.00  0.00    -0.273 OA
ATOM      3  N   ARG A   5      23.822   8.721  -7.784  1.00  0.00    -0.343 N 
ATOM      4  H   UNL     1      23.665   8.031  -7.013  1.00  0.00     0.164 HD
ENDROOT
BRANCH   1   5
ATOM      5  CA  LEU A   4      21.349   8.759  -8.143  1.00  0.00     0.171 C 
BRANCH   5   6
ATOM      6  N   LEU A   4      20.564   9.921  -7.778  1.00  0.00    -0.343 N 
ATOM      7  C   ARG A   3      20.036  10.083  -6.472  1.00  0.00     0.243 C 
ATOM      8  O   ARG A   3      20.148   9.160  -5.617  1.00  0.00    -0.273 OA
ATOM      9  H   UNL     1      20.405  10.664  -8.496  1.00  0.00     0.164 HD
BRANCH   7  10
ATOM     10  CA  ARG A   3      19.336  11.357  -6.139  1.00  0.00     0.171 C 
BRANCH  10  11
ATOM     11  N   ARG A   3      18.086  11.050  -5.496  1.00  0.00    -0.343 N 
ATOM     12  C   PHE A   2      16.884  11.750  -5.772  1.00  0.00     0.243 C 
ATOM     13  O   PHE A   2      16.900  12.792  -6.484  1.00  0.00    -0.273 OA
ATOM     14  H   UNL     1      18.163  10.516  -4.604  1.00  0.00     0.164 HD
BRANCH  12  15
ATOM     15  CA  PHE A   2      15.649  11.313  -5.059  1.00  0.00     0.175 C 
BRANCH  15  16
ATOM     16  N   PHE A   2      14.451  11.740  -5.769  1.00  0.00    -0.343 N 
ATOM     17  C   SER A   1      13.914  13.051  -5.637  1.00  0.00     0.239 C 
ATOM     18  O   SER A   1      14.449  13.870  -4.839  1.00  0.00    -0.273 OA
ATOM     19  H   UNL     1      13.858  11.001  -6.206  1.00  0.00     0.164 HD
BRANCH  17  20
ATOM     20  CA  SER A   1      12.655  13.411  -6.383  1.00  0.00     0.167 C 
BRANCH  20  21
ATOM     21  N   SER A   1      12.467  14.863  -6.382  1.00  0.00    -0.318 NA
ATOM     22  H   UNL     1      12.304  15.175  -5.397  1.00  0.00     0.119 HD
ATOM     23  H   UNL     1      11.581  15.088  -6.891  1.00  0.00     0.119 HD
ENDBRANCH  20  21
BRANCH  20  24
ATOM     24  CB  SER A   1      12.694  12.894  -7.842  1.00  0.00     0.184 C 
BRANCH  24  25
ATOM     25  OG  SER A   1      11.440  13.037  -8.449  1.00  0.00    -0.394 OA
ATOM     26  H   UNL     1      10.855  12.332  -8.065  1.00  0.00     0.210 HD
ENDBRANCH  24  25
ENDBRANCH  20  24
ENDBRANCH  17  20
ENDBRANCH  15  16
BRANCH  15  27
ATOM     27  CB  PHE A   2      15.612   9.774  -4.892  1.00  0.00     0.070 C 
BRANCH  27  28
ATOM     28  CG  PHE A   2      14.444   9.289  -4.090  1.00  0.00    -0.045 A 
ATOM     29  CD1 PHE A   2      13.903  10.046  -3.033  1.00  0.00     0.004 A 
ATOM     30  CD2 PHE A   2      13.968   7.989  -4.310  1.00  0.00     0.004 A 
ATOM     31  CE1 PHE A   2      12.869   9.535  -2.260  1.00  0.00     0.000 A 
ATOM     32  CE2 PHE A   2      12.939   7.477  -3.521  1.00  0.00     0.000 A 
ATOM     33  CZ  PHE A   2      12.386   8.252  -2.502  1.00  0.00     0.000 A 
ENDBRANCH  27  28
ENDBRANCH  15  27
ENDBRANCH  12  15
ENDBRANCH  10  11
BRANCH  10  34
ATOM     34  CB  ARG A   3      20.189  12.252  -5.236  1.00  0.00     0.037 C 
BRANCH  34  35
ATOM     35  CG  ARG A   3      20.431  11.698  -3.812  1.00  0.00     0.024 C 
BRANCH  35  36
ATOM     36  CD  ARG A   3      21.817  12.081  -3.296  1.00  0.00     0.116 C 
BRANCH  36  37
ATOM     37  NE  ARG A   3      21.912  13.527  -3.088  1.00  0.00    -0.357 N 
ATOM     38  CZ  ARG A   3      22.634  14.413  -3.956  1.00  0.00     0.185 C 
ATOM     39  NH2 ARG A   3      22.637  15.817  -3.688  1.00  0.00    -0.370 N 
ATOM     40  H   UNL     1      21.365  13.941  -2.300  1.00  0.00     0.163 HD
ATOM     41  H   UNL     1      22.118  16.199  -2.866  1.00  0.00     0.159 HD
ATOM     42  H   UNL     1      23.155  16.481  -4.305  1.00  0.00     0.159 HD
BRANCH  38  43
ATOM     43  NH1 ARG A   3      23.281  13.949  -4.979  1.00  0.00    -0.270 NA
ATOM     44  H   UNL     1      23.814  14.575  -5.624  1.00  0.00     0.191 HD
ENDBRANCH  38  43
ENDBRANCH  36  37
ENDBRANCH  35  36
ENDBRANCH  34  35
ENDBRANCH  10  34
ENDBRANCH   7  10
ENDBRANCH   5   6
BRANCH   5  45
ATOM     45  CB  LEU A   4      20.658   7.999  -9.277  1.00  0.00     0.038 C 
BRANCH  45  46
ATOM     46  CG  LEU A   4      21.451   6.770  -9.773  1.00  0.00    -0.015 C 
ATOM     47  CD1 LEU A   4      21.764   5.778  -8.642  1.00  0.00     0.007 C 
ATOM     48  CD2 LEU A   4      20.663   6.065 -10.880  1.00  0.00     0.007 C 
ENDBRANCH  45  46
ENDBRANCH   5  45
ENDBRANCH   1   5
BRANCH   3  49
ATOM     49  CA  ARG A   5      25.185   9.122  -8.070  1.00  0.00     0.171 C 
BRANCH  49  50
ATOM     50  C   ARG A   5      25.899   7.968  -8.685  1.00  0.00     0.243 C 
ATOM     51  N   ARG A   6      25.923   7.878 -10.102  1.00  0.00    -0.341 N 
ATOM     52  O   ARG A   5      26.442   7.082  -7.972  1.00  0.00    -0.273 OA
ATOM     53  H   UNL     1      25.577   8.705 -10.638  1.00  0.00     0.164 HD
BRANCH  51  54
ATOM     54  CA  ARG A   6      26.538   6.765 -10.814  1.00  0.00     0.192 C 
BRANCH  54  55
ATOM     55  C   ARG A   6      27.988   6.643 -10.426  1.00  0.00     0.326 C 
ATOM     56  O   ARG A   6      28.795   7.578 -10.680  1.00  0.00    -0.250 OA
BRANCH  55  57
ATOM     57  OXT ARG A   6      28.440   5.492  -9.789  1.00  0.00    -0.480 OA
ATOM     58  H   UNL     1      29.412   5.394  -9.520  1.00  0.00     0.296 HD
ENDBRANCH  55  57
ENDBRANCH  54  55
BRANCH  54  59
ATOM     59  CB  ARG A   6      26.418   6.972 -12.335  1.00  0.00     0.039 C 
BRANCH  59  60
ATOM     60  CG  ARG A   6      24.958   7.147 -12.794  1.00  0.00     0.024 C 
BRANCH  60  61
ATOM     61  CD  ARG A   6      24.811   6.973 -14.311  1.00  0.00     0.116 C 
BRANCH  61  62
ATOM     62  NE  ARG A   6      25.032   5.581 -14.707  1.00  0.00    -0.357 N 
ATOM     63  CZ  ARG A   6      24.075   4.538 -14.474  1.00  0.00     0.185 C 
ATOM     64  NH2 ARG A   6      24.386   3.195 -14.853  1.00  0.00    -0.370 N 
ATOM     65  H   UNL     1      25.908   5.350 -15.228  1.00  0.00     0.163 HD
ATOM     66  H   UNL     1      25.306   2.970 -15.292  1.00  0.00     0.159 HD
ATOM     67  H   UNL     1      23.703   2.421 -14.696  1.00  0.00     0.159 HD
BRANCH  63  68
ATOM     68  NH1 ARG A   6      22.929   4.809 -13.930  1.00  0.00    -0.270 NA
ATOM     69  H   UNL     1      22.215   4.068 -13.752  1.00  0.00     0.191 HD
ENDBRANCH  63  68
ENDBRANCH  61  62
ENDBRANCH  60  61
ENDBRANCH  59  60
ENDBRANCH  54  59
ENDBRANCH  51  54
ENDBRANCH  49  50
BRANCH  49  70
ATOM     70  CB  ARG A   5      25.862   9.603  -6.793  1.00  0.00     0.037 C 
BRANCH  70  71
ATOM     71  CG  ARG A   5      25.169  10.860  -6.268  1.00  0.00     0.024 C 
BRANCH  71  72
ATOM     72  CD  ARG A   5      25.848  11.386  -5.012  1.00  0.00     0.116 C 
BRANCH  72  73
ATOM     73  NE  ARG A   5      25.376  10.688  -3.819  1.00  0.00    -0.357 N 
ATOM     74  CZ  ARG A   5      25.468  11.283  -2.526  1.00  0.00     0.185 C 
ATOM     75  NH2 ARG A   5      26.105  12.548  -2.351  1.00  0.00    -0.370 N 
ATOM     76  H   UNL     1      24.890   9.766  -3.911  1.00  0.00     0.163 HD
ATOM     77  H   UNL     1      26.699  12.983  -3.090  1.00  0.00     0.159 HD
ATOM     78  H   UNL     1      26.072  13.028  -1.424  1.00  0.00     0.159 HD
BRANCH  74  79
ATOM     79  NH1 ARG A   5      24.953  10.673  -1.506  1.00  0.00    -0.270 NA
ATOM     80  H   UNL     1      24.994  11.078  -0.544  1.00  0.00     0.191 HD
ENDBRANCH  74  79
ENDBRANCH  72  73
ENDBRANCH  71  72
ENDBRANCH  70  71
ENDBRANCH  49  70
ENDBRANCH   3  49
TORSDOF 34
