REMARK SMILES CC(C)C[C@H](NC(=O)[C@H](CCC(N)=O)NC(=O)[C@@H](N)CO)C(=O)N1CCC[C@H]1C(=O)N[C@@H](CCCNC(=N)N)C(=O)N[C@@H](CC(N)=O)C(=O)O
REMARK SMILES IDX 24 1 28 2 27 3 26 4 25 5 22 6 23 7 5 8 6 9 7 10 8 11 9 13
REMARK SMILES IDX 15 14 16 15 17 16 18 18 19 19 20 22 21 23 10 25 11 26 12 27
REMARK SMILES IDX 13 28 14 29 4 32 2 33 1 34 3 35 29 36 31 37 30 38 32 40
REMARK SMILES IDX 40 41 42 42 41 43 43 45 48 46 49 47 50 48 44 50 45 51 46 52
REMARK SMILES IDX 47 53 33 56 34 57 35 58 36 59 37 60 39 61 38 65
REMARK H PARENT 6 12 15 17 19 20 19 21 21 24 13 30 13 31 31 39 42 44 50 49
REMARK H PARENT 46 54 46 55 36 62 39 63 39 64 38 66
ROOT
ATOM      1  N   PRO A   4      20.295   9.814  -8.445  1.00  0.00    -0.329 N 
ATOM      2  CA  PRO A   4      21.295   8.795  -8.132  1.00  0.00     0.174 C 
ATOM      3  CB  PRO A   4      20.893   7.554  -8.936  1.00  0.00     0.037 C 
ATOM      4  CG  PRO A   4      19.475   7.814  -9.432  1.00  0.00     0.024 C 
ATOM      5  CD  PRO A   4      19.266   9.319  -9.345  1.00  0.00     0.120 C 
ENDROOT
BRANCH   1   6
ATOM      6  C   LEU A   3      20.180  11.105  -7.802  1.00  0.00     0.245 C 
ATOM      7  O   LEU A   3      19.274  11.897  -8.182  1.00  0.00    -0.272 OA
BRANCH   6   8
ATOM      8  CA  LEU A   3      21.068  11.501  -6.638  1.00  0.00     0.171 C 
BRANCH   8   9
ATOM      9  N   LEU A   3      21.464  12.914  -6.729  1.00  0.00    -0.343 N 
ATOM     10  C   GLN A   2      20.568  14.041  -6.692  1.00  0.00     0.243 C 
ATOM     11  O   GLN A   2      19.405  13.914  -6.221  1.00  0.00    -0.273 OA
ATOM     12  H   UNL     1      22.475  13.106  -6.913  1.00  0.00     0.164 HD
BRANCH  10  13
ATOM     13  CA  GLN A   2      21.052  15.403  -7.146  1.00  0.00     0.171 C 
BRANCH  13  14
ATOM     14  N   GLN A   2      21.944  15.268  -8.303  1.00  0.00    -0.343 N 
ATOM     15  C   SER A   1      23.017  16.188  -8.559  1.00  0.00     0.239 C 
ATOM     16  O   SER A   1      23.113  17.247  -7.881  1.00  0.00    -0.273 OA
ATOM     17  H   UNL     1      21.772  14.489  -8.979  1.00  0.00     0.164 HD
BRANCH  15  18
ATOM     18  CA  SER A   1      24.035  15.917  -9.640  1.00  0.00     0.167 C 
BRANCH  18  19
ATOM     19  N   SER A   1      24.547  14.546  -9.538  1.00  0.00    -0.318 NA
ATOM     20  H   UNL     1      25.367  14.452 -10.181  1.00  0.00     0.119 HD
ATOM     21  H   UNL     1      23.826  13.865  -9.867  1.00  0.00     0.119 HD
ENDBRANCH  18  19
BRANCH  18  22
ATOM     22  CB  SER A   1      23.482  16.225 -11.045  1.00  0.00     0.184 C 
BRANCH  22  23
ATOM     23  OG  SER A   1      22.433  15.359 -11.389  1.00  0.00    -0.394 OA
ATOM     24  H   UNL     1      21.588  15.821 -11.149  1.00  0.00     0.210 HD
ENDBRANCH  22  23
ENDBRANCH  18  22
ENDBRANCH  15  18
ENDBRANCH  13  14
BRANCH  13  25
ATOM     25  CB  GLN A   2      19.901  16.381  -7.472  1.00  0.00     0.045 C 
BRANCH  25  26
ATOM     26  CG  GLN A   2      19.056  15.944  -8.680  1.00  0.00     0.102 C 
BRANCH  26  27
ATOM     27  CD  GLN A   2      17.915  16.893  -8.891  1.00  0.00     0.217 C 
ATOM     28  NE2 GLN A   2      18.097  18.084  -9.658  1.00  0.00    -0.370 N 
ATOM     29  OE1 GLN A   2      16.799  16.659  -8.356  1.00  0.00    -0.275 OA
ATOM     30  H   UNL     1      19.021  18.305 -10.089  1.00  0.00     0.159 HD
ATOM     31  H   UNL     1      17.306  18.753  -9.784  1.00  0.00     0.159 HD
ENDBRANCH  26  27
ENDBRANCH  25  26
ENDBRANCH  13  25
ENDBRANCH  10  13
ENDBRANCH   8   9
BRANCH   8  32
ATOM     32  CB  LEU A   3      20.424  11.139  -5.278  1.00  0.00     0.038 C 
BRANCH  32  33
ATOM     33  CG  LEU A   3      21.444  11.022  -4.116  1.00  0.00    -0.015 C 
ATOM     34  CD1 LEU A   3      22.066  12.377  -3.743  1.00  0.00     0.007 C 
ATOM     35  CD2 LEU A   3      20.767  10.406  -2.885  1.00  0.00     0.007 C 
ENDBRANCH  32  33
ENDBRANCH   8  32
ENDBRANCH   6   8
ENDBRANCH   1   6
BRANCH   2  36
ATOM     36  C   PRO A   4      22.681   9.238  -8.512  1.00  0.00     0.243 C 
ATOM     37  N   ARG A   5      23.792   8.711  -7.793  1.00  0.00    -0.343 N 
ATOM     38  O   PRO A   4      22.860  10.037  -9.471  1.00  0.00    -0.273 OA
ATOM     39  H   UNL     1      23.622   7.985  -7.060  1.00  0.00     0.164 HD
BRANCH  37  40
ATOM     40  CA  ARG A   5      25.164   9.115  -8.072  1.00  0.00     0.171 C 
BRANCH  40  41
ATOM     41  C   ARG A   5      25.888   7.965  -8.685  1.00  0.00     0.243 C 
ATOM     42  N   ASN A   6      25.911   7.866 -10.102  1.00  0.00    -0.341 N 
ATOM     43  O   ARG A   5      26.443   7.088  -7.969  1.00  0.00    -0.273 OA
ATOM     44  H   UNL     1      25.493   8.652 -10.652  1.00  0.00     0.164 HD
BRANCH  42  45
ATOM     45  CA  ASN A   6      26.541   6.752 -10.803  1.00  0.00     0.201 C 
BRANCH  45  46
ATOM     46  C   ASN A   6      27.991   6.643 -10.414  1.00  0.00     0.326 C 
ATOM     47  O   ASN A   6      28.794   7.579 -10.677  1.00  0.00    -0.250 OA
BRANCH  46  48
ATOM     48  OXT ASN A   6      28.448   5.501  -9.764  1.00  0.00    -0.480 OA
ATOM     49  H   UNL     1      29.420   5.411  -9.491  1.00  0.00     0.296 HD
ENDBRANCH  46  48
ENDBRANCH  45  46
BRANCH  45  50
ATOM     50  CB  ASN A   6      26.423   6.946 -12.322  1.00  0.00     0.136 C 
BRANCH  50  51
ATOM     51  CG  ASN A   6      25.009   7.181 -12.772  1.00  0.00     0.220 C 
ATOM     52  ND2 ASN A   6      24.753   8.089 -13.834  1.00  0.00    -0.370 N 
ATOM     53  OD1 ASN A   6      24.050   6.563 -12.237  1.00  0.00    -0.275 OA
ATOM     54  H   UNL     1      23.775   8.259 -14.156  1.00  0.00     0.159 HD
ATOM     55  H   UNL     1      25.534   8.596 -14.307  1.00  0.00     0.159 HD
ENDBRANCH  50  51
ENDBRANCH  45  50
ENDBRANCH  42  45
ENDBRANCH  40  41
BRANCH  40  56
ATOM     56  CB  ARG A   5      25.848   9.597  -6.795  1.00  0.00     0.037 C 
BRANCH  56  57
ATOM     57  CG  ARG A   5      25.169  10.858  -6.270  1.00  0.00     0.024 C 
BRANCH  57  58
ATOM     58  CD  ARG A   5      25.846  11.387  -5.015  1.00  0.00     0.116 C 
BRANCH  58  59
ATOM     59  NE  ARG A   5      25.379  10.684  -3.823  1.00  0.00    -0.357 N 
ATOM     60  CZ  ARG A   5      25.468  11.279  -2.527  1.00  0.00     0.185 C 
ATOM     61  NH2 ARG A   5      26.105  12.541  -2.349  1.00  0.00    -0.370 N 
ATOM     62  H   UNL     1      24.901   9.759  -3.921  1.00  0.00     0.163 HD
ATOM     63  H   UNL     1      26.692  12.983  -3.090  1.00  0.00     0.159 HD
ATOM     64  H   UNL     1      26.079  13.010  -1.417  1.00  0.00     0.159 HD
BRANCH  60  65
ATOM     65  NH1 ARG A   5      24.955  10.679  -1.500  1.00  0.00    -0.270 NA
ATOM     66  H   UNL     1      24.473   9.757  -1.585  1.00  0.00     0.191 HD
ENDBRANCH  60  65
ENDBRANCH  58  59
ENDBRANCH  57  58
ENDBRANCH  56  57
ENDBRANCH  40  56
ENDBRANCH  37  40
ENDBRANCH   2  36
TORSDOF 27
