REMARK SMILES CC(C)C[C@H](NC(=O)[C@H](CCCNC(=N)N)NC(=O)[C@@H](N)CO)C(=O)N[C@@H](C)C(=O)N[C@@H](CCCNC(=N)N)C(=O)N[C@@H](CC(N)=O)C(=O)O
REMARK SMILES IDX 24 1 25 2 26 3 5 5 6 6 7 7 8 8 9 10 17 11 18 12 19 13 20 15
REMARK SMILES IDX 21 16 22 19 23 20 10 22 11 23 12 24 13 25 14 26 16 27 15 31
REMARK SMILES IDX 4 33 2 34 1 35 3 36 27 37 28 38 29 39 31 40 30 41 32 43
REMARK SMILES IDX 40 44 42 45 41 46 43 48 48 49 49 50 50 51 44 53 45 54 46 55
REMARK SMILES IDX 47 56 33 59 34 60 35 61 36 62 37 63 39 64 38 68
REMARK H PARENT 26 4 6 9 17 14 21 17 21 18 23 21 13 28 16 29 16 30 15 32 31 42
REMARK H PARENT 42 47 50 52 46 57 46 58 36 65 39 66 39 67 38 69
ROOT
ATOM      1  C   LEU A   3      20.062  10.080  -6.440  1.00  0.00     0.243 C 
ATOM      2  O   LEU A   3      20.202   9.180  -5.569  1.00  0.00    -0.273 OA
ATOM      3  N   ALA A   4      20.563   9.903  -7.759  1.00  0.00    -0.343 N 
ATOM      4  H   UNL     1      20.396  10.643  -8.479  1.00  0.00     0.164 HD
ENDROOT
BRANCH   1   5
ATOM      5  CA  LEU A   3      19.327  11.334  -6.128  1.00  0.00     0.171 C 
BRANCH   5   6
ATOM      6  N   LEU A   3      18.081  11.019  -5.484  1.00  0.00    -0.343 N 
ATOM      7  C   ARG A   2      16.879  11.737  -5.731  1.00  0.00     0.243 C 
ATOM      8  O   ARG A   2      16.896  12.780  -6.445  1.00  0.00    -0.273 OA
ATOM      9  H   UNL     1      18.152  10.389  -4.663  1.00  0.00     0.164 HD
BRANCH   7  10
ATOM     10  CA  ARG A   2      15.624  11.282  -5.038  1.00  0.00     0.171 C 
BRANCH  10  11
ATOM     11  N   ARG A   2      14.451  11.734  -5.771  1.00  0.00    -0.343 N 
ATOM     12  C   SER A   1      13.915  13.046  -5.637  1.00  0.00     0.239 C 
ATOM     13  O   SER A   1      14.444  13.863  -4.834  1.00  0.00    -0.273 OA
ATOM     14  H   UNL     1      13.900  11.014  -6.285  1.00  0.00     0.164 HD
BRANCH  12  15
ATOM     15  CA  SER A   1      12.662  13.410  -6.391  1.00  0.00     0.167 C 
BRANCH  15  16
ATOM     16  N   SER A   1      12.473  14.862  -6.373  1.00  0.00    -0.318 NA
ATOM     17  H   UNL     1      11.541  15.089  -6.791  1.00  0.00     0.119 HD
ATOM     18  H   UNL     1      13.205  15.319  -6.965  1.00  0.00     0.119 HD
ENDBRANCH  15  16
BRANCH  15  19
ATOM     19  CB  SER A   1      12.685  12.886  -7.851  1.00  0.00     0.184 C 
BRANCH  19  20
ATOM     20  OG  SER A   1      11.432  13.054  -8.452  1.00  0.00    -0.394 OA
ATOM     21  H   UNL     1      10.829  12.373  -8.054  1.00  0.00     0.210 HD
ENDBRANCH  19  20
ENDBRANCH  15  19
ENDBRANCH  12  15
ENDBRANCH  10  11
BRANCH  10  22
ATOM     22  CB  ARG A   2      15.572   9.737  -4.919  1.00  0.00     0.037 C 
BRANCH  22  23
ATOM     23  CG  ARG A   2      14.393   9.268  -4.069  1.00  0.00     0.024 C 
BRANCH  23  24
ATOM     24  CD  ARG A   2      14.351   7.738  -3.967  1.00  0.00     0.116 C 
BRANCH  24  25
ATOM     25  NE  ARG A   2      13.197   7.309  -3.179  1.00  0.00    -0.357 N 
ATOM     26  CZ  ARG A   2      13.145   7.403  -1.748  1.00  0.00     0.185 C 
ATOM     27  NH2 ARG A   2      11.966   6.986  -1.054  1.00  0.00    -0.370 N 
ATOM     28  H   UNL     1      12.393   6.868  -3.681  1.00  0.00     0.163 HD
ATOM     29  H   UNL     1      11.143   6.622  -1.583  1.00  0.00     0.159 HD
ATOM     30  H   UNL     1      11.908   7.042  -0.013  1.00  0.00     0.159 HD
BRANCH  26  31
ATOM     31  NH1 ARG A   2      14.163   7.852  -1.083  1.00  0.00    -0.270 NA
ATOM     32  H   UNL     1      14.151   7.927  -0.042  1.00  0.00     0.191 HD
ENDBRANCH  26  31
ENDBRANCH  24  25
ENDBRANCH  23  24
ENDBRANCH  22  23
ENDBRANCH  10  22
ENDBRANCH   7  10
ENDBRANCH   5   6
BRANCH   5  33
ATOM     33  CB  LEU A   3      20.152  12.339  -5.313  1.00  0.00     0.038 C 
BRANCH  33  34
ATOM     34  CG  LEU A   3      20.433  12.205  -3.790  1.00  0.00    -0.015 C 
ATOM     35  CD1 LEU A   3      21.822  11.747  -3.389  1.00  0.00     0.007 C 
ATOM     36  CD2 LEU A   3      19.304  11.896  -2.817  1.00  0.00     0.007 C 
ENDBRANCH  33  34
ENDBRANCH   5  33
ENDBRANCH   1   5
BRANCH   3  37
ATOM     37  CA  ALA A   4      21.342   8.742  -8.143  1.00  0.00     0.168 C 
ATOM     38  CB  ALA A   4      20.661   8.007  -9.290  1.00  0.00     0.041 C 
BRANCH  37  39
ATOM     39  C   ALA A   4      22.708   9.197  -8.526  1.00  0.00     0.242 C 
ATOM     40  N   ARG A   5      23.818   8.707  -7.787  1.00  0.00    -0.343 N 
ATOM     41  O   ALA A   4      22.871  10.024  -9.465  1.00  0.00    -0.273 OA
ATOM     42  H   UNL     1      23.665   7.986  -7.045  1.00  0.00     0.164 HD
BRANCH  40  43
ATOM     43  CA  ARG A   5      25.180   9.119  -8.071  1.00  0.00     0.171 C 
BRANCH  43  44
ATOM     44  C   ARG A   5      25.901   7.969  -8.685  1.00  0.00     0.243 C 
ATOM     45  N   ASN A   6      25.916   7.867 -10.102  1.00  0.00    -0.341 N 
ATOM     46  O   ARG A   5      26.449   7.088  -7.969  1.00  0.00    -0.273 OA
ATOM     47  H   UNL     1      25.496   8.652 -10.651  1.00  0.00     0.164 HD
BRANCH  45  48
ATOM     48  CA  ASN A   6      26.543   6.751 -10.803  1.00  0.00     0.201 C 
BRANCH  48  49
ATOM     49  C   ASN A   6      27.994   6.642 -10.415  1.00  0.00     0.326 C 
ATOM     50  O   ASN A   6      28.795   7.578 -10.676  1.00  0.00    -0.250 OA
BRANCH  49  51
ATOM     51  OXT ASN A   6      28.452   5.498  -9.768  1.00  0.00    -0.480 OA
ATOM     52  H   UNL     1      29.425   5.408  -9.500  1.00  0.00     0.296 HD
ENDBRANCH  49  51
ENDBRANCH  48  49
BRANCH  48  53
ATOM     53  CB  ASN A   6      26.426   6.945 -12.322  1.00  0.00     0.136 C 
BRANCH  53  54
ATOM     54  CG  ASN A   6      25.011   7.183 -12.773  1.00  0.00     0.220 C 
ATOM     55  ND2 ASN A   6      24.746   8.088 -13.836  1.00  0.00    -0.370 N 
ATOM     56  OD1 ASN A   6      24.053   6.566 -12.239  1.00  0.00    -0.275 OA
ATOM     57  H   UNL     1      25.516   8.602 -14.320  1.00  0.00     0.159 HD
ATOM     58  H   UNL     1      25.515   8.602 -14.320  1.00  0.00     0.159 HD
ENDBRANCH  53  54
ENDBRANCH  48  53
ENDBRANCH  45  48
ENDBRANCH  43  44
BRANCH  43  59
ATOM     59  CB  ARG A   5      25.856   9.602  -6.792  1.00  0.00     0.037 C 
BRANCH  59  60
ATOM     60  CG  ARG A   5      25.172  10.865  -6.266  1.00  0.00     0.024 C 
BRANCH  60  61
ATOM     61  CD  ARG A   5      25.851  11.380  -5.002  1.00  0.00     0.116 C 
BRANCH  61  62
ATOM     62  NE  ARG A   5      25.361  10.681  -3.816  1.00  0.00    -0.357 N 
ATOM     63  CZ  ARG A   5      25.464  11.277  -2.527  1.00  0.00     0.185 C 
ATOM     64  NH2 ARG A   5      26.094  12.547  -2.387  1.00  0.00    -0.370 N 
ATOM     65  H   UNL     1      24.867   9.764  -3.911  1.00  0.00     0.163 HD
ATOM     66  H   UNL     1      26.177  13.017  -1.458  1.00  0.00     0.159 HD
ATOM     67  H   UNL     1      26.177  13.016  -1.457  1.00  0.00     0.159 HD
BRANCH  63  68
ATOM     68  NH1 ARG A   5      24.965  10.670  -1.497  1.00  0.00    -0.270 NA
ATOM     69  H   UNL     1      25.012  11.078  -0.537  1.00  0.00     0.191 HD
ENDBRANCH  63  68
ENDBRANCH  61  62
ENDBRANCH  60  61
ENDBRANCH  59  60
ENDBRANCH  43  59
ENDBRANCH  40  43
ENDBRANCH  37  39
ENDBRANCH   3  37
TORSDOF 29
