REMARK SMILES CC(C)C[C@H](NC(=O)[C@H](CCC(=O)O)NC(=O)[C@H](C)NC(=O)[C@@H](N)CO)C(=O)N[C@@H](CCCNC(=N)N)C(=O)N[C@@H](CC(N)=O)C(=O)O
REMARK SMILES IDX 7 1 8 2 6 3 9 5 15 6 16 7 17 8 18 10 19 11 20 12 21 13 22 14
REMARK SMILES IDX 23 16 24 17 25 20 26 21 10 23 11 24 12 25 13 26 14 27 5 29
REMARK SMILES IDX 27 30 29 31 28 32 30 34 38 35 40 36 39 37 41 39 46 40 47 41
REMARK SMILES IDX 48 42 42 44 43 45 44 46 45 47 31 50 32 51 33 52 34 53 35 54
REMARK SMILES IDX 37 55 36 59 4 61 2 62 1 63 3 64
REMARK H PARENT 6 4 15 9 20 15 24 18 24 19 26 22 14 28 29 33 40 38 48 43 44 48
REMARK H PARENT 44 49 34 56 37 57 37 58 36 60
ROOT
ATOM      1  C   GLU A   3       2.079  -0.185  -0.768  1.00  0.00     0.243 C 
ATOM      2  O   GLU A   3       2.598   0.632   0.040  1.00  0.00    -0.273 OA
ATOM      3  N   LEU A   4       0.650  -0.261  -0.898  1.00  0.00    -0.343 N 
ATOM      4  H   UNL     1       0.256  -1.048  -1.462  1.00  0.00     0.164 HD
ENDROOT
BRANCH   1   5
ATOM      5  CA  GLU A   3       2.947  -1.128  -1.566  1.00  0.00     0.172 C 
BRANCH   5   6
ATOM      6  N   GLU A   3       4.238  -0.508  -1.912  1.00  0.00    -0.343 N 
ATOM      7  C   ALA A   2       5.303  -0.223  -0.981  1.00  0.00     0.242 C 
ATOM      8  O   ALA A   2       5.149  -0.471   0.247  1.00  0.00    -0.273 OA
ATOM      9  H   UNL     1       4.349  -0.214  -2.907  1.00  0.00     0.164 HD
BRANCH   7  10
ATOM     10  CA  ALA A   2       6.583   0.453  -1.431  1.00  0.00     0.168 C 
ATOM     11  CB  ALA A   2       7.061  -0.028  -2.807  1.00  0.00     0.041 C 
BRANCH  10  12
ATOM     12  N   ALA A   2       7.646   0.199  -0.453  1.00  0.00    -0.343 N 
ATOM     13  C   SER A   1       7.989   1.122   0.591  1.00  0.00     0.239 C 
ATOM     14  O   SER A   1       7.418   2.245   0.662  1.00  0.00    -0.273 OA
ATOM     15  H   UNL     1       8.073  -0.757  -0.426  1.00  0.00     0.164 HD
BRANCH  13  16
ATOM     16  CA  SER A   1       8.980   0.717   1.651  1.00  0.00     0.167 C 
BRANCH  16  17
ATOM     17  N   SER A   1       9.743   1.881   2.106  1.00  0.00    -0.318 NA
ATOM     18  H   UNL     1      10.480   1.556   2.773  1.00  0.00     0.119 HD
ATOM     19  H   UNL     1      10.257   2.276   1.284  1.00  0.00     0.119 HD
ENDBRANCH  16  17
BRANCH  16  20
ATOM     20  CB  SER A   1       8.232   0.072   2.830  1.00  0.00     0.184 C 
BRANCH  20  21
ATOM     21  OG  SER A   1       9.136  -0.444   3.771  1.00  0.00    -0.394 OA
ATOM     22  H   UNL     1       9.510  -1.278   3.377  1.00  0.00     0.210 HD
ENDBRANCH  20  21
ENDBRANCH  16  20
ENDBRANCH  13  16
ENDBRANCH  10  12
ENDBRANCH   7  10
ENDBRANCH   5   6
BRANCH   5  23
ATOM     23  CB  GLU A   3       3.097  -2.493  -0.850  1.00  0.00     0.047 C 
BRANCH  23  24
ATOM     24  CG  GLU A   3       3.634  -3.606  -1.764  1.00  0.00     0.125 C 
BRANCH  24  25
ATOM     25  CD  GLU A   3       5.082  -3.425  -2.097  1.00  0.00     0.303 C 
ATOM     26  OE1 GLU A   3       5.432  -3.191  -3.285  1.00  0.00    -0.252 OA
BRANCH  25  27
ATOM     27  OE2 GLU A   3       6.042  -3.515  -1.093  1.00  0.00    -0.481 OA
ATOM     28  H   UNL     1       7.026  -3.388  -1.301  1.00  0.00     0.296 HD
ENDBRANCH  25  27
ENDBRANCH  24  25
ENDBRANCH  23  24
ENDBRANCH   5  23
ENDBRANCH   1   5
BRANCH   3  29
ATOM     29  CA  LEU A   4      -0.258   0.671  -0.215  1.00  0.00     0.171 C 
BRANCH  29  30
ATOM     30  C   LEU A   4      -1.678   0.156  -0.217  1.00  0.00     0.243 C 
ATOM     31  N   ARG A   5      -2.515   0.361   0.930  1.00  0.00    -0.343 N 
ATOM     32  O   LEU A   4      -2.143  -0.413  -1.244  1.00  0.00    -0.273 OA
ATOM     33  H   UNL     1      -2.152   0.946   1.717  1.00  0.00     0.164 HD
BRANCH  31  34
ATOM     34  CA  ARG A   5      -3.905  -0.101   0.986  1.00  0.00     0.171 C 
BRANCH  34  35
ATOM     35  C   ARG A   5      -4.827   1.024   0.601  1.00  0.00     0.243 C 
ATOM     36  N   ASN A   6      -5.954   0.775  -0.252  1.00  0.00    -0.341 N 
ATOM     37  O   ARG A   5      -4.633   2.177   1.075  1.00  0.00    -0.273 OA
ATOM     38  H   UNL     1      -6.110  -0.197  -0.606  1.00  0.00     0.164 HD
BRANCH  36  39
ATOM     39  CA  ASN A   6      -6.988   1.788  -0.487  1.00  0.00     0.201 C 
BRANCH  39  40
ATOM     40  C   ASN A   6      -7.919   1.837   0.693  1.00  0.00     0.326 C 
ATOM     41  O   ASN A   6      -8.440   0.777   1.135  1.00  0.00    -0.250 OA
BRANCH  40  42
ATOM     42  OXT ASN A   6      -8.232   3.059   1.278  1.00  0.00    -0.480 OA
ATOM     43  H   UNL     1      -8.862   3.109   2.071  1.00  0.00     0.296 HD
ENDBRANCH  40  42
ENDBRANCH  39  40
BRANCH  39  44
ATOM     44  CB  ASN A   6      -7.756   1.473  -1.785  1.00  0.00     0.136 C 
BRANCH  44  45
ATOM     45  CG  ASN A   6      -8.729   2.565  -2.132  1.00  0.00     0.220 C 
ATOM     46  ND2 ASN A   6      -8.269   3.794  -2.697  1.00  0.00    -0.370 N 
ATOM     47  OD1 ASN A   6      -9.956   2.407  -1.894  1.00  0.00    -0.275 OA
ATOM     48  H   UNL     1      -8.947   4.552  -2.933  1.00  0.00     0.159 HD
ATOM     49  H   UNL     1      -7.252   3.945  -2.884  1.00  0.00     0.159 HD
ENDBRANCH  44  45
ENDBRANCH  39  44
ENDBRANCH  36  39
ENDBRANCH  34  35
BRANCH  34  50
ATOM     50  CB  ARG A   5      -4.252  -0.603   2.398  1.00  0.00     0.037 C 
BRANCH  50  51
ATOM     51  CG  ARG A   5      -3.397  -1.817   2.796  1.00  0.00     0.024 C 
BRANCH  51  52
ATOM     52  CD  ARG A   5      -3.775  -2.359   4.180  1.00  0.00     0.116 C 
BRANCH  52  53
ATOM     53  NE  ARG A   5      -5.072  -3.041   4.159  1.00  0.00    -0.357 N 
ATOM     54  CZ  ARG A   5      -5.662  -3.652   5.321  1.00  0.00     0.185 C 
ATOM     55  NH2 ARG A   5      -6.925  -4.306   5.203  1.00  0.00    -0.370 N 
ATOM     56  H   UNL     1      -5.594  -3.121   3.258  1.00  0.00     0.163 HD
ATOM     57  H   UNL     1      -7.372  -4.754   6.034  1.00  0.00     0.159 HD
ATOM     58  H   UNL     1      -7.424  -4.339   4.286  1.00  0.00     0.159 HD
BRANCH  54  59
ATOM     59  NH1 ARG A   5      -5.069  -3.630   6.476  1.00  0.00    -0.270 NA
ATOM     60  H   UNL     1      -4.146  -3.173   6.641  1.00  0.00     0.191 HD
ENDBRANCH  54  59
ENDBRANCH  52  53
ENDBRANCH  51  52
ENDBRANCH  50  51
ENDBRANCH  34  50
ENDBRANCH  31  34
ENDBRANCH  29  30
BRANCH  29  61
ATOM     61  CB  LEU A   4      -0.167   2.103  -0.796  1.00  0.00     0.038 C 
BRANCH  61  62
ATOM     62  CG  LEU A   4      -0.715   2.305  -2.234  1.00  0.00    -0.015 C 
ATOM     63  CD1 LEU A   4      -0.770   3.804  -2.557  1.00  0.00     0.007 C 
ATOM     64  CD2 LEU A   4       0.130   1.582  -3.295  1.00  0.00     0.007 C 
ENDBRANCH  61  62
ENDBRANCH  29  61
ENDBRANCH   3  29
TORSDOF 28
