REMARK SMILES CC(C)C[C@H](NC(=O)[C@@H](NC(=O)[C@@H](N)CO)[C@@H](C)O)C(=O)N[C@@H](C)C(=O)N[C@@H](CCCNC(=N)N)C(=O)N[C@@H](CC(N)=O)C(=O)O
REMARK SMILES IDX 20 1 21 2 22 3 5 5 6 6 7 7 8 8 9 10 10 11 11 12 12 13 13 15
REMARK SMILES IDX 14 16 15 19 16 20 17 22 18 23 19 24 4 26 2 27 1 28 3 29
REMARK SMILES IDX 23 30 24 31 25 32 27 33 26 34 28 36 36 37 38 38 37 39 39 41
REMARK SMILES IDX 44 42 45 43 46 44 40 46 41 47 42 48 43 49 29 52 30 53 31 54
REMARK SMILES IDX 32 55 33 56 35 57 34 61
REMARK H PARENT 22 4 6 9 10 14 14 17 14 18 16 21 19 25 27 35 38 40 46 45 42 50
REMARK H PARENT 42 51 32 58 35 59 35 60 34 62
ROOT
ATOM      1  C   LEU A   3      20.048  10.080  -6.475  1.00  0.00     0.243 C 
ATOM      2  O   LEU A   3      20.166   9.156  -5.623  1.00  0.00    -0.273 OA
ATOM      3  N   ALA A   4      20.563   9.913  -7.784  1.00  0.00    -0.343 N 
ATOM      4  H   UNL     1      20.401  10.657  -8.502  1.00  0.00     0.164 HD
ENDROOT
BRANCH   1   5
ATOM      5  CA  LEU A   3      19.331  11.347  -6.140  1.00  0.00     0.171 C 
BRANCH   5   6
ATOM      6  N   LEU A   3      18.075  11.012  -5.522  1.00  0.00    -0.342 N 
ATOM      7  C   THR A   2      16.877  11.741  -5.742  1.00  0.00     0.245 C 
ATOM      8  O   THR A   2      16.893  12.790  -6.446  1.00  0.00    -0.273 OA
ATOM      9  H   UNL     1      18.146  10.364  -4.713  1.00  0.00     0.164 HD
BRANCH   7  10
ATOM     10  CA  THR A   2      15.626  11.284  -5.041  1.00  0.00     0.200 C 
BRANCH  10  11
ATOM     11  N   THR A   2      14.447  11.731  -5.768  1.00  0.00    -0.341 N 
ATOM     12  C   SER A   1      13.915  13.044  -5.633  1.00  0.00     0.240 C 
ATOM     13  O   SER A   1      14.449  13.858  -4.831  1.00  0.00    -0.273 OA
ATOM     14  H   UNL     1      13.889  11.011  -6.274  1.00  0.00     0.164 HD
BRANCH  12  15
ATOM     15  CA  SER A   1      12.661  13.412  -6.390  1.00  0.00     0.167 C 
BRANCH  15  16
ATOM     16  N   SER A   1      12.459  14.863  -6.395  1.00  0.00    -0.318 NA
ATOM     17  H   UNL     1      13.321  15.337  -6.752  1.00  0.00     0.119 HD
ATOM     18  H   UNL     1      12.293  15.189  -5.415  1.00  0.00     0.119 HD
ENDBRANCH  15  16
BRANCH  15  19
ATOM     19  CB  SER A   1      12.688  12.895  -7.846  1.00  0.00     0.184 C 
BRANCH  19  20
ATOM     20  OG  SER A   1      11.433  13.056  -8.445  1.00  0.00    -0.394 OA
ATOM     21  H   UNL     1      11.378  14.000  -8.746  1.00  0.00     0.210 HD
ENDBRANCH  19  20
ENDBRANCH  15  19
ENDBRANCH  12  15
ENDBRANCH  10  11
BRANCH  10  22
ATOM     22  CB  THR A   2      15.585   9.736  -4.892  1.00  0.00     0.143 C 
ATOM     23  CG2 THR A   2      14.379   9.272  -4.085  1.00  0.00     0.041 C 
BRANCH  22  24
ATOM     24  OG1 THR A   2      15.591   9.122  -6.157  1.00  0.00    -0.391 OA
ATOM     25  H   UNL     1      15.880   8.182  -6.024  1.00  0.00     0.211 HD
ENDBRANCH  22  24
ENDBRANCH  10  22
ENDBRANCH   7  10
ENDBRANCH   5   6
BRANCH   5  26
ATOM     26  CB  LEU A   3      20.159  12.249  -5.216  1.00  0.00     0.038 C 
BRANCH  26  27
ATOM     27  CG  LEU A   3      20.416  11.678  -3.791  1.00  0.00    -0.015 C 
ATOM     28  CD1 LEU A   3      21.818  12.068  -3.319  1.00  0.00     0.007 C 
ATOM     29  CD2 LEU A   3      19.369  12.168  -2.780  1.00  0.00     0.007 C 
ENDBRANCH  26  27
ENDBRANCH   5  26
ENDBRANCH   1   5
BRANCH   3  30
ATOM     30  CA  ALA A   4      21.342   8.748  -8.157  1.00  0.00     0.168 C 
ATOM     31  CB  ALA A   4      20.664   8.006  -9.300  1.00  0.00     0.041 C 
BRANCH  30  32
ATOM     32  C   ALA A   4      22.710   9.198  -8.533  1.00  0.00     0.242 C 
ATOM     33  N   ARG A   5      23.817   8.707  -7.791  1.00  0.00    -0.343 N 
ATOM     34  O   ALA A   4      22.877  10.026  -9.470  1.00  0.00    -0.273 OA
ATOM     35  H   UNL     1      23.661   7.985  -7.050  1.00  0.00     0.164 HD
BRANCH  33  36
ATOM     36  CA  ARG A   5      25.181   9.117  -8.072  1.00  0.00     0.171 C 
BRANCH  36  37
ATOM     37  C   ARG A   5      25.901   7.968  -8.686  1.00  0.00     0.243 C 
ATOM     38  N   ASN A   6      25.916   7.866 -10.103  1.00  0.00    -0.341 N 
ATOM     39  O   ARG A   5      26.450   7.087  -7.970  1.00  0.00    -0.273 OA
ATOM     40  H   UNL     1      25.496   8.651 -10.651  1.00  0.00     0.164 HD
BRANCH  38  41
ATOM     41  CA  ASN A   6      26.543   6.751 -10.804  1.00  0.00     0.201 C 
BRANCH  41  42
ATOM     42  C   ASN A   6      27.994   6.642 -10.417  1.00  0.00     0.326 C 
ATOM     43  O   ASN A   6      28.795   7.579 -10.677  1.00  0.00    -0.250 OA
BRANCH  42  44
ATOM     44  OXT ASN A   6      28.453   5.497  -9.772  1.00  0.00    -0.480 OA
ATOM     45  H   UNL     1      29.426   5.407  -9.504  1.00  0.00     0.296 HD
ENDBRANCH  42  44
ENDBRANCH  41  42
BRANCH  41  46
ATOM     46  CB  ASN A   6      26.424   6.946 -12.323  1.00  0.00     0.136 C 
BRANCH  46  47
ATOM     47  CG  ASN A   6      25.009   7.181 -12.772  1.00  0.00     0.220 C 
ATOM     48  ND2 ASN A   6      24.753   8.089 -13.834  1.00  0.00    -0.370 N 
ATOM     49  OD1 ASN A   6      24.051   6.563 -12.238  1.00  0.00    -0.275 OA
ATOM     50  H   UNL     1      25.533   8.595 -14.309  1.00  0.00     0.159 HD
ATOM     51  H   UNL     1      23.775   8.258 -14.156  1.00  0.00     0.159 HD
ENDBRANCH  46  47
ENDBRANCH  41  46
ENDBRANCH  38  41
ENDBRANCH  36  37
BRANCH  36  52
ATOM     52  CB  ARG A   5      25.855   9.600  -6.792  1.00  0.00     0.037 C 
BRANCH  52  53
ATOM     53  CG  ARG A   5      25.162  10.857  -6.270  1.00  0.00     0.024 C 
BRANCH  53  54
ATOM     54  CD  ARG A   5      25.838  11.390  -5.014  1.00  0.00     0.116 C 
BRANCH  54  55
ATOM     55  NE  ARG A   5      25.377  10.686  -3.820  1.00  0.00    -0.357 N 
ATOM     56  CZ  ARG A   5      25.469  11.281  -2.527  1.00  0.00     0.185 C 
ATOM     57  NH2 ARG A   5      26.107  12.546  -2.352  1.00  0.00    -0.370 N 
ATOM     58  H   UNL     1      24.894   9.763  -3.911  1.00  0.00     0.163 HD
ATOM     59  H   UNL     1      26.696  12.982  -3.094  1.00  0.00     0.159 HD
ATOM     60  H   UNL     1      26.080  13.024  -1.424  1.00  0.00     0.159 HD
BRANCH  56  61
ATOM     61  NH1 ARG A   5      24.955  10.672  -1.507  1.00  0.00    -0.270 NA
ATOM     62  H   UNL     1      24.995  11.077  -0.545  1.00  0.00     0.191 HD
ENDBRANCH  56  61
ENDBRANCH  54  55
ENDBRANCH  53  54
ENDBRANCH  52  53
ENDBRANCH  36  52
ENDBRANCH  33  36
ENDBRANCH  30  32
ENDBRANCH   3  30
TORSDOF 26
