REMARK SMILES CC(C)C[C@H](NC(=O)[C@H](Cc1ccccc1)NC(=O)[C@@H](N)CO)C(=O)N[C@@H](CCC(N)=O)C(=O)N[C@@H](CCCNC(=N)N)C(=O)N[C@@H](CCCNC(=N)N)C(=O)O
REMARK SMILES IDX 33 1 34 2 35 3 27 5 26 6 24 7 25 8 5 10 6 11 7 12 8 13 9 15
REMARK SMILES IDX 17 16 18 17 19 18 20 20 21 21 22 24 23 25 10 27 11 28 12 29
REMARK SMILES IDX 16 30 13 31 15 32 14 33 4 34 2 35 1 36 3 37 28 38 29 39
REMARK SMILES IDX 30 40 31 41 32 42 36 45 44 46 46 47 45 48 47 50 55 51 56 52
REMARK SMILES IDX 57 53 48 55 49 56 50 57 51 58 52 59 54 60 53 64 37 66 38 67
REMARK SMILES IDX 39 68 40 69 41 70 43 71 42 75
REMARK H PARENT 35 4 26 9 6 14 17 19 21 22 21 23 23 26 31 43 31 44 46 49 57 54
REMARK H PARENT 51 61 54 62 54 63 53 65 40 72 43 73 43 74 42 76
ROOT
ATOM      1  C   GLN A   4       0.944  -1.048  -0.985  1.00  0.00     0.243 C 
ATOM      2  O   GLN A   4       0.843   0.109  -0.497  1.00  0.00    -0.273 OA
ATOM      3  N   ARG A   5       2.113  -1.837  -0.718  1.00  0.00    -0.343 N 
ATOM      4  H   UNL     1       2.118  -2.819  -1.061  1.00  0.00     0.164 HD
ENDROOT
BRANCH   1   5
ATOM      5  CA  GLN A   4      -0.117  -1.575  -1.923  1.00  0.00     0.171 C 
BRANCH   5   6
ATOM      6  N   GLN A   4      -1.428  -0.964  -1.647  1.00  0.00    -0.343 N 
ATOM      7  C   LEU A   3      -2.663  -1.656  -1.894  1.00  0.00     0.243 C 
ATOM      8  O   LEU A   3      -2.663  -2.874  -2.231  1.00  0.00    -0.273 OA
ATOM      9  H   UNL     1      -1.474   0.052  -1.406  1.00  0.00     0.164 HD
BRANCH   7  10
ATOM     10  CA  LEU A   3      -3.972  -0.927  -1.754  1.00  0.00     0.171 C 
BRANCH  10  11
ATOM     11  N   LEU A   3      -4.093  -0.391  -0.393  1.00  0.00    -0.343 N 
ATOM     12  C   PHE A   2      -5.341   0.086   0.133  1.00  0.00     0.243 C 
ATOM     13  O   PHE A   2      -6.291   0.367  -0.649  1.00  0.00    -0.273 OA
ATOM     14  H   UNL     1      -3.297  -0.506   0.278  1.00  0.00     0.164 HD
BRANCH  12  15
ATOM     15  CA  PHE A   2      -5.531   0.182   1.626  1.00  0.00     0.175 C 
BRANCH  15  16
ATOM     16  N   PHE A   2      -6.280   1.391   2.004  1.00  0.00    -0.343 N 
ATOM     17  C   SER A   1      -7.667   1.641   1.698  1.00  0.00     0.239 C 
ATOM     18  O   SER A   1      -8.354   0.757   1.115  1.00  0.00    -0.273 OA
ATOM     19  H   UNL     1      -5.759   2.102   2.569  1.00  0.00     0.164 HD
BRANCH  17  20
ATOM     20  CA  SER A   1      -8.332   2.925   2.159  1.00  0.00     0.167 C 
BRANCH  20  21
ATOM     21  N   SER A   1      -7.354   4.017   2.213  1.00  0.00    -0.318 NA
ATOM     22  H   UNL     1      -7.063   4.272   1.238  1.00  0.00     0.119 HD
ATOM     23  H   UNL     1      -7.806   4.858   2.640  1.00  0.00     0.119 HD
ENDBRANCH  20  21
BRANCH  20  24
ATOM     24  CB  SER A   1      -9.523   3.326   1.262  1.00  0.00     0.184 C 
BRANCH  24  25
ATOM     25  OG  SER A   1     -10.557   2.379   1.347  1.00  0.00    -0.394 OA
ATOM     26  H   UNL     1     -11.011   2.523   2.215  1.00  0.00     0.210 HD
ENDBRANCH  24  25
ENDBRANCH  20  24
ENDBRANCH  17  20
ENDBRANCH  15  16
BRANCH  15  27
ATOM     27  CB  PHE A   2      -6.164  -1.110   2.177  1.00  0.00     0.070 C 
BRANCH  27  28
ATOM     28  CG  PHE A   2      -6.371  -1.042   3.671  1.00  0.00    -0.045 A 
ATOM     29  CD1 PHE A   2      -7.657  -0.854   4.206  1.00  0.00     0.004 A 
ATOM     30  CD2 PHE A   2      -5.274  -1.165   4.541  1.00  0.00     0.004 A 
ATOM     31  CE1 PHE A   2      -7.844  -0.803   5.590  1.00  0.00     0.000 A 
ATOM     32  CE2 PHE A   2      -5.462  -1.102   5.924  1.00  0.00     0.000 A 
ATOM     33  CZ  PHE A   2      -6.747  -0.930   6.448  1.00  0.00     0.000 A 
ENDBRANCH  27  28
ENDBRANCH  15  27
ENDBRANCH  12  15
ENDBRANCH  10  11
BRANCH  10  34
ATOM     34  CB  LEU A   3      -4.070   0.204  -2.817  1.00  0.00     0.038 C 
BRANCH  34  35
ATOM     35  CG  LEU A   3      -5.218  -0.014  -3.830  1.00  0.00    -0.015 C 
ATOM     36  CD1 LEU A   3      -4.956  -1.232  -4.734  1.00  0.00     0.007 C 
ATOM     37  CD2 LEU A   3      -5.415   1.239  -4.694  1.00  0.00     0.007 C 
ENDBRANCH  34  35
ENDBRANCH  10  34
ENDBRANCH   7  10
ENDBRANCH   5   6
BRANCH   5  38
ATOM     38  CB  GLN A   4       0.286  -1.358  -3.396  1.00  0.00     0.045 C 
BRANCH  38  39
ATOM     39  CG  GLN A   4       0.339   0.126  -3.806  1.00  0.00     0.102 C 
BRANCH  39  40
ATOM     40  CD  GLN A   4       0.801   0.280  -5.223  1.00  0.00     0.217 C 
ATOM     41  NE2 GLN A   4       1.851   1.200  -5.549  1.00  0.00    -0.370 N 
ATOM     42  OE1 GLN A   4       0.237  -0.369  -6.148  1.00  0.00    -0.275 OA
ATOM     43  H   UNL     1       2.286   1.803  -4.814  1.00  0.00     0.159 HD
ATOM     44  H   UNL     1       2.234   1.239  -6.521  1.00  0.00     0.159 HD
ENDBRANCH  39  40
ENDBRANCH  38  39
ENDBRANCH   5  38
ENDBRANCH   1   5
BRANCH   3  45
ATOM     45  CA  ARG A   5       3.201  -1.369   0.152  1.00  0.00     0.171 C 
BRANCH  45  46
ATOM     46  C   ARG A   5       3.862  -0.122  -0.393  1.00  0.00     0.243 C 
ATOM     47  N   ARG A   6       4.724   0.650   0.458  1.00  0.00    -0.341 N 
ATOM     48  O   ARG A   5       3.718   0.199  -1.605  1.00  0.00    -0.273 OA
ATOM     49  H   UNL     1       4.759   0.406   1.477  1.00  0.00     0.164 HD
BRANCH  47  50
ATOM     50  CA  ARG A   6       5.579   1.724  -0.058  1.00  0.00     0.192 C 
BRANCH  50  51
ATOM     51  C   ARG A   6       6.600   1.148  -1.001  1.00  0.00     0.326 C 
ATOM     52  O   ARG A   6       7.302   0.161  -0.650  1.00  0.00    -0.250 OA
BRANCH  51  53
ATOM     53  OXT ARG A   6       6.790   1.725  -2.252  1.00  0.00    -0.480 OA
ATOM     54  H   UNL     1       7.479   1.347  -2.890  1.00  0.00     0.296 HD
ENDBRANCH  51  53
ENDBRANCH  50  51
BRANCH  50  55
ATOM     55  CB  ARG A   6       6.273   2.457   1.110  1.00  0.00     0.039 C 
BRANCH  55  56
ATOM     56  CG  ARG A   6       6.986   3.742   0.651  1.00  0.00     0.024 C 
BRANCH  56  57
ATOM     57  CD  ARG A   6       7.787   4.388   1.790  1.00  0.00     0.116 C 
BRANCH  57  58
ATOM     58  NE  ARG A   6       8.981   3.601   2.109  1.00  0.00    -0.357 N 
ATOM     59  CZ  ARG A   6       9.863   3.960   3.183  1.00  0.00     0.185 C 
ATOM     60  NH2 ARG A   6      10.989   3.132   3.476  1.00  0.00    -0.370 N 
ATOM     61  H   UNL     1       9.218   2.756   1.539  1.00  0.00     0.163 HD
ATOM     62  H   UNL     1      11.191   2.284   2.905  1.00  0.00     0.159 HD
ATOM     63  H   UNL     1      11.644   3.370   4.251  1.00  0.00     0.159 HD
BRANCH  59  64
ATOM     64  NH1 ARG A   6       9.640   5.026   3.885  1.00  0.00    -0.270 NA
ATOM     65  H   UNL     1      10.270   5.301   4.674  1.00  0.00     0.191 HD
ENDBRANCH  59  64
ENDBRANCH  57  58
ENDBRANCH  56  57
ENDBRANCH  55  56
ENDBRANCH  50  55
ENDBRANCH  47  50
ENDBRANCH  45  46
BRANCH  45  66
ATOM     66  CB  ARG A   5       4.245  -2.481   0.397  1.00  0.00     0.037 C 
BRANCH  66  67
ATOM     67  CG  ARG A   5       5.000  -2.911  -0.879  1.00  0.00     0.024 C 
BRANCH  67  68
ATOM     68  CD  ARG A   5       6.155  -3.872  -0.569  1.00  0.00     0.116 C 
BRANCH  68  69
ATOM     69  NE  ARG A   5       5.672  -5.184  -0.132  1.00  0.00    -0.357 N 
ATOM     70  CZ  ARG A   5       6.546  -6.271   0.216  1.00  0.00     0.185 C 
ATOM     71  NH2 ARG A   5       5.985  -7.529   0.588  1.00  0.00    -0.370 N 
ATOM     72  H   UNL     1       4.641  -5.365  -0.100  1.00  0.00     0.163 HD
ATOM     73  H   UNL     1       4.949  -7.665   0.601  1.00  0.00     0.159 HD
ATOM     74  H   UNL     1       6.603  -8.329   0.847  1.00  0.00     0.159 HD
BRANCH  70  75
ATOM     75  NH1 ARG A   5       7.836  -6.140   0.185  1.00  0.00    -0.270 NA
ATOM     76  H   UNL     1       8.324  -5.256  -0.084  1.00  0.00     0.191 HD
ENDBRANCH  70  75
ENDBRANCH  68  69
ENDBRANCH  67  68
ENDBRANCH  66  67
ENDBRANCH  45  66
ENDBRANCH   3  45
TORSDOF 32
