REMARK SMILES N=C(N)NCCC[C@H](NC(=O)[C@H](Cc1ccccc1)NC(=O)[C@H](CO)NC(=O)[C@H](Cc1ccccc1)NC(=O)[C@@H](N)CO)C(=O)N[C@@H](CC(N)=O)C(=O)O
REMARK SMILES IDX 21 1 22 2 20 3 23 5 26 6 27 7 28 8 29 10 37 11 38 12 39 13
REMARK SMILES IDX 40 15 41 16 42 19 43 20 30 22 31 23 32 24 36 25 33 26 35 27
REMARK SMILES IDX 34 28 24 29 25 30 12 32 10 33 9 34 11 35 8 37 44 38 46 39
REMARK SMILES IDX 45 40 47 42 52 43 53 44 54 45 48 47 49 48 50 49 51 50 7 53
REMARK SMILES IDX 6 54 5 55 4 56 2 57 3 58 1 62 13 64 14 65 15 66 19 67 16 68
REMARK SMILES IDX 18 69 17 70
REMARK H PARENT 20 4 26 9 37 14 41 17 41 18 43 21 25 31 9 36 46 41 54 46 50 51
REMARK H PARENT 50 52 4 59 3 60 3 61 1 63
ROOT
ATOM      1  C   SER A   3      20.046  10.096  -6.465  1.00  0.00     0.245 C 
ATOM      2  O   SER A   3      20.175   9.197  -5.587  1.00  0.00    -0.273 OA
ATOM      3  N   PHE A   4      20.562   9.911  -7.775  1.00  0.00    -0.342 N 
ATOM      4  H   UNL     1      20.395  10.646  -8.501  1.00  0.00     0.164 HD
ENDROOT
BRANCH   1   5
ATOM      5  CA  SER A   3      19.343  11.372  -6.150  1.00  0.00     0.197 C 
BRANCH   5   6
ATOM      6  N   SER A   3      18.096  11.058  -5.499  1.00  0.00    -0.340 N 
ATOM      7  C   PHE A   2      16.889  11.752  -5.775  1.00  0.00     0.243 C 
ATOM      8  O   PHE A   2      16.900  12.792  -6.487  1.00  0.00    -0.273 OA
ATOM      9  H   UNL     1      18.189  10.555  -4.589  1.00  0.00     0.164 HD
BRANCH   7  10
ATOM     10  CA  PHE A   2      15.653  11.314  -5.060  1.00  0.00     0.175 C 
BRANCH  10  11
ATOM     11  N   PHE A   2      14.454  11.739  -5.769  1.00  0.00    -0.343 N 
ATOM     12  C   SER A   1      13.914  13.049  -5.637  1.00  0.00     0.239 C 
ATOM     13  O   SER A   1      14.447  13.869  -4.840  1.00  0.00    -0.273 OA
ATOM     14  H   UNL     1      13.863  10.998  -6.206  1.00  0.00     0.164 HD
BRANCH  12  15
ATOM     15  CA  SER A   1      12.655  13.409  -6.387  1.00  0.00     0.167 C 
BRANCH  15  16
ATOM     16  N   SER A   1      12.467  14.861  -6.384  1.00  0.00    -0.318 NA
ATOM     17  H   UNL     1      12.302  15.171  -5.399  1.00  0.00     0.119 HD
ATOM     18  H   UNL     1      11.582  15.087  -6.894  1.00  0.00     0.119 HD
ENDBRANCH  15  16
BRANCH  15  19
ATOM     19  CB  SER A   1      12.699  12.894  -7.844  1.00  0.00     0.184 C 
BRANCH  19  20
ATOM     20  OG  SER A   1      11.440  13.041  -8.440  1.00  0.00    -0.394 OA
ATOM     21  H   UNL     1      11.550  12.778  -9.392  1.00  0.00     0.210 HD
ENDBRANCH  19  20
ENDBRANCH  15  19
ENDBRANCH  12  15
ENDBRANCH  10  11
BRANCH  10  22
ATOM     22  CB  PHE A   2      15.619   9.776  -4.890  1.00  0.00     0.070 C 
BRANCH  22  23
ATOM     23  CG  PHE A   2      14.450   9.289  -4.088  1.00  0.00    -0.045 A 
ATOM     24  CD1 PHE A   2      13.906  10.047  -3.033  1.00  0.00     0.004 A 
ATOM     25  CD2 PHE A   2      13.972   7.990  -4.310  1.00  0.00     0.004 A 
ATOM     26  CE1 PHE A   2      12.870   9.536  -2.261  1.00  0.00     0.000 A 
ATOM     27  CE2 PHE A   2      12.941   7.478  -3.522  1.00  0.00     0.000 A 
ATOM     28  CZ  PHE A   2      12.387   8.253  -2.503  1.00  0.00     0.000 A 
ENDBRANCH  22  23
ENDBRANCH  10  22
ENDBRANCH   7  10
ENDBRANCH   5   6
BRANCH   5  29
ATOM     29  CB  SER A   3      20.181  12.250  -5.220  1.00  0.00     0.191 C 
BRANCH  29  30
ATOM     30  OG  SER A   3      21.401  12.589  -5.823  1.00  0.00    -0.394 OA
ATOM     31  H   UNL     1      21.198  13.275  -6.511  1.00  0.00     0.210 HD
ENDBRANCH  29  30
ENDBRANCH   5  29
ENDBRANCH   1   5
BRANCH   3  32
ATOM     32  CA  PHE A   4      21.348   8.747  -8.139  1.00  0.00     0.175 C 
BRANCH  32  33
ATOM     33  C   PHE A   4      22.712   9.205  -8.523  1.00  0.00     0.243 C 
ATOM     34  N   ARG A   5      23.822   8.714  -7.786  1.00  0.00    -0.343 N 
ATOM     35  O   PHE A   4      22.874  10.026  -9.467  1.00  0.00    -0.273 OA
ATOM     36  H   UNL     1      23.669   8.012  -7.026  1.00  0.00     0.164 HD
BRANCH  34  37
ATOM     37  CA  ARG A   5      25.184   9.120  -8.073  1.00  0.00     0.171 C 
BRANCH  37  38
ATOM     38  C   ARG A   5      25.900   7.967  -8.686  1.00  0.00     0.243 C 
ATOM     39  N   ASN A   6      25.914   7.864 -10.103  1.00  0.00    -0.341 N 
ATOM     40  O   ARG A   5      26.448   7.086  -7.970  1.00  0.00    -0.273 OA
ATOM     41  H   UNL     1      25.490   8.647 -10.651  1.00  0.00     0.164 HD
BRANCH  39  42
ATOM     42  CA  ASN A   6      26.543   6.751 -10.805  1.00  0.00     0.201 C 
BRANCH  42  43
ATOM     43  C   ASN A   6      27.993   6.642 -10.415  1.00  0.00     0.326 C 
ATOM     44  O   ASN A   6      28.795   7.578 -10.676  1.00  0.00    -0.250 OA
BRANCH  43  45
ATOM     45  OXT ASN A   6      28.450   5.499  -9.766  1.00  0.00    -0.480 OA
ATOM     46  H   UNL     1      29.422   5.409  -9.496  1.00  0.00     0.296 HD
ENDBRANCH  43  45
ENDBRANCH  42  43
BRANCH  42  47
ATOM     47  CB  ASN A   6      26.429   6.950 -12.324  1.00  0.00     0.136 C 
BRANCH  47  48
ATOM     48  CG  ASN A   6      25.017   7.186 -12.776  1.00  0.00     0.220 C 
ATOM     49  ND2 ASN A   6      24.759   8.093 -13.838  1.00  0.00    -0.370 N 
ATOM     50  OD1 ASN A   6      24.061   6.570 -12.241  1.00  0.00    -0.275 OA
ATOM     51  H   UNL     1      25.539   8.599 -14.313  1.00  0.00     0.159 HD
ATOM     52  H   UNL     1      23.780   8.261 -14.159  1.00  0.00     0.159 HD
ENDBRANCH  47  48
ENDBRANCH  42  47
ENDBRANCH  39  42
ENDBRANCH  37  38
BRANCH  37  53
ATOM     53  CB  ARG A   5      25.861   9.603  -6.795  1.00  0.00     0.037 C 
BRANCH  53  54
ATOM     54  CG  ARG A   5      25.165  10.859  -6.270  1.00  0.00     0.024 C 
BRANCH  54  55
ATOM     55  CD  ARG A   5      25.841  11.390  -5.014  1.00  0.00     0.116 C 
BRANCH  55  56
ATOM     56  NE  ARG A   5      25.378  10.687  -3.820  1.00  0.00    -0.357 N 
ATOM     57  CZ  ARG A   5      25.470  11.282  -2.527  1.00  0.00     0.185 C 
ATOM     58  NH2 ARG A   5      26.109  12.546  -2.351  1.00  0.00    -0.370 N 
ATOM     59  H   UNL     1      24.898   9.762  -3.912  1.00  0.00     0.163 HD
ATOM     60  H   UNL     1      26.084  13.022  -1.423  1.00  0.00     0.159 HD
ATOM     61  H   UNL     1      26.698  12.982  -3.093  1.00  0.00     0.159 HD
BRANCH  57  62
ATOM     62  NH1 ARG A   5      24.956  10.671  -1.507  1.00  0.00    -0.270 NA
ATOM     63  H   UNL     1      24.999  11.075  -0.544  1.00  0.00     0.191 HD
ENDBRANCH  57  62
ENDBRANCH  55  56
ENDBRANCH  54  55
ENDBRANCH  53  54
ENDBRANCH  37  53
ENDBRANCH  34  37
ENDBRANCH  32  33
BRANCH  32  64
ATOM     64  CB  PHE A   4      20.659   7.988  -9.276  1.00  0.00     0.070 C 
BRANCH  64  65
ATOM     65  CG  PHE A   4      21.387   6.751  -9.774  1.00  0.00    -0.045 A 
ATOM     66  CD1 PHE A   4      21.113   6.306 -11.080  1.00  0.00     0.004 A 
ATOM     67  CD2 PHE A   4      22.158   5.923  -8.929  1.00  0.00     0.004 A 
ATOM     68  CE1 PHE A   4      21.619   5.086 -11.541  1.00  0.00     0.000 A 
ATOM     69  CE2 PHE A   4      22.689   4.721  -9.405  1.00  0.00     0.000 A 
ATOM     70  CZ  PHE A   4      22.418   4.301 -10.708  1.00  0.00     0.000 A 
ENDBRANCH  64  65
ENDBRANCH  32  64
ENDBRANCH   3  32
TORSDOF 28
