REMARK SMILES CC(C)C[C@H](NC(=O)[C@H](CO)NC(=O)[C@H](Cc1ccccc1)NC(=O)[C@@H](N)CO)C(=O)N[C@@H](CCCNC(=N)N)C(=O)N[C@@H](CCCNC(=N)N)C(=O)O
REMARK SMILES IDX 30 1 31 2 32 3 5 5 6 6 7 7 8 8 9 10 12 11 13 12 14 13 15 15
REMARK SMILES IDX 23 16 24 17 25 18 26 20 27 21 28 24 29 25 16 27 17 28 18 29
REMARK SMILES IDX 22 30 19 31 21 32 20 33 10 34 11 35 4 37 2 38 1 39 3 40
REMARK SMILES IDX 33 41 41 42 43 43 42 44 44 46 52 47 53 48 54 49 45 51 46 52
REMARK SMILES IDX 47 53 48 54 49 55 51 56 50 60 34 62 35 63 36 64 37 65 38 66
REMARK SMILES IDX 40 67 39 71
REMARK H PARENT 32 4 6 9 12 14 23 19 27 22 27 23 29 26 11 36 43 45 54 50 48 57
REMARK H PARENT 51 58 51 59 50 61 37 68 40 69 40 70 39 72
ROOT
ATOM      1  C   LEU A   4      22.710   9.215  -8.516  1.00  0.00     0.243 C 
ATOM      2  O   LEU A   4      22.874  10.032  -9.463  1.00  0.00    -0.273 OA
ATOM      3  N   ARG A   5      23.819   8.718  -7.781  1.00  0.00    -0.343 N 
ATOM      4  H   UNL     1      23.664   8.028  -7.012  1.00  0.00     0.164 HD
ENDROOT
BRANCH   1   5
ATOM      5  CA  LEU A   4      21.345   8.758  -8.137  1.00  0.00     0.171 C 
BRANCH   5   6
ATOM      6  N   LEU A   4      20.558   9.920  -7.773  1.00  0.00    -0.342 N 
ATOM      7  C   SER A   3      20.044  10.101  -6.462  1.00  0.00     0.245 C 
ATOM      8  O   SER A   3      20.173   9.200  -5.586  1.00  0.00    -0.273 OA
ATOM      9  H   UNL     1      20.390  10.654  -8.498  1.00  0.00     0.164 HD
BRANCH   7  10
ATOM     10  CA  SER A   3      19.341  11.377  -6.145  1.00  0.00     0.197 C 
BRANCH  10  11
ATOM     11  N   SER A   3      18.095  11.060  -5.496  1.00  0.00    -0.340 N 
ATOM     12  C   PHE A   2      16.887  11.751  -5.775  1.00  0.00     0.243 C 
ATOM     13  O   PHE A   2      16.897  12.791  -6.490  1.00  0.00    -0.273 OA
ATOM     14  H   UNL     1      18.187  10.558  -4.585  1.00  0.00     0.164 HD
BRANCH  12  15
ATOM     15  CA  PHE A   2      15.652  11.314  -5.061  1.00  0.00     0.175 C 
BRANCH  15  16
ATOM     16  N   PHE A   2      14.453  11.739  -5.769  1.00  0.00    -0.343 N 
ATOM     17  C   SER A   1      13.914  13.049  -5.636  1.00  0.00     0.239 C 
ATOM     18  O   SER A   1      14.449  13.868  -4.839  1.00  0.00    -0.273 OA
ATOM     19  H   UNL     1      13.864  10.999  -6.210  1.00  0.00     0.164 HD
BRANCH  17  20
ATOM     20  CA  SER A   1      12.654  13.411  -6.385  1.00  0.00     0.167 C 
BRANCH  20  21
ATOM     21  N   SER A   1      12.468  14.864  -6.382  1.00  0.00    -0.318 NA
ATOM     22  H   UNL     1      12.337  15.180  -5.393  1.00  0.00     0.119 HD
ATOM     23  H   UNL     1      11.565  15.088  -6.858  1.00  0.00     0.119 HD
ENDBRANCH  20  21
BRANCH  20  24
ATOM     24  CB  SER A   1      12.696  12.894  -7.842  1.00  0.00     0.184 C 
BRANCH  24  25
ATOM     25  OG  SER A   1      11.440  13.036  -8.447  1.00  0.00    -0.394 OA
ATOM     26  H   UNL     1      11.454  13.890  -8.953  1.00  0.00     0.210 HD
ENDBRANCH  24  25
ENDBRANCH  20  24
ENDBRANCH  17  20
ENDBRANCH  15  16
BRANCH  15  27
ATOM     27  CB  PHE A   2      15.618   9.775  -4.891  1.00  0.00     0.070 C 
BRANCH  27  28
ATOM     28  CG  PHE A   2      14.449   9.289  -4.089  1.00  0.00    -0.045 A 
ATOM     29  CD1 PHE A   2      13.906  10.047  -3.033  1.00  0.00     0.004 A 
ATOM     30  CD2 PHE A   2      13.972   7.990  -4.310  1.00  0.00     0.004 A 
ATOM     31  CE1 PHE A   2      12.870   9.536  -2.261  1.00  0.00     0.000 A 
ATOM     32  CE2 PHE A   2      12.941   7.478  -3.522  1.00  0.00     0.000 A 
ATOM     33  CZ  PHE A   2      12.387   8.253  -2.503  1.00  0.00     0.000 A 
ENDBRANCH  27  28
ENDBRANCH  15  27
ENDBRANCH  12  15
ENDBRANCH  10  11
BRANCH  10  34
ATOM     34  CB  SER A   3      20.188  12.245  -5.219  1.00  0.00     0.191 C 
BRANCH  34  35
ATOM     35  OG  SER A   3      19.540  13.465  -4.981  1.00  0.00    -0.394 OA
ATOM     36  H   UNL     1      20.134  13.978  -4.374  1.00  0.00     0.210 HD
ENDBRANCH  34  35
ENDBRANCH  10  34
ENDBRANCH   7  10
ENDBRANCH   5   6
BRANCH   5  37
ATOM     37  CB  LEU A   4      20.656   7.998  -9.273  1.00  0.00     0.038 C 
BRANCH  37  38
ATOM     38  CG  LEU A   4      21.451   6.771  -9.771  1.00  0.00    -0.015 C 
ATOM     39  CD1 LEU A   4      21.764   5.779  -8.641  1.00  0.00     0.007 C 
ATOM     40  CD2 LEU A   4      20.663   6.067 -10.879  1.00  0.00     0.007 C 
ENDBRANCH  37  38
ENDBRANCH   5  37
ENDBRANCH   1   5
BRANCH   3  41
ATOM     41  CA  ARG A   5      25.182   9.120  -8.069  1.00  0.00     0.171 C 
BRANCH  41  42
ATOM     42  C   ARG A   5      25.897   7.967  -8.681  1.00  0.00     0.243 C 
ATOM     43  N   ARG A   6      25.965   7.904 -10.097  1.00  0.00    -0.341 N 
ATOM     44  O   ARG A   5      26.426   7.072  -7.969  1.00  0.00    -0.273 OA
ATOM     45  H   UNL     1      25.897   8.816 -10.598  1.00  0.00     0.164 HD
BRANCH  43  46
ATOM     46  CA  ARG A   6      26.539   6.776 -10.810  1.00  0.00     0.192 C 
BRANCH  46  47
ATOM     47  C   ARG A   6      27.990   6.636 -10.436  1.00  0.00     0.326 C 
ATOM     48  O   ARG A   6      28.801   7.570 -10.677  1.00  0.00    -0.250 OA
BRANCH  47  49
ATOM     49  OXT ARG A   6      28.438   5.469  -9.825  1.00  0.00    -0.480 OA
ATOM     50  H   UNL     1      29.411   5.358  -9.567  1.00  0.00     0.296 HD
ENDBRANCH  47  49
ENDBRANCH  46  47
BRANCH  46  51
ATOM     51  CB  ARG A   6      26.409   7.002 -12.327  1.00  0.00     0.039 C 
BRANCH  51  52
ATOM     52  CG  ARG A   6      24.946   7.103 -12.818  1.00  0.00     0.024 C 
BRANCH  52  53
ATOM     53  CD  ARG A   6      24.319   8.507 -12.826  1.00  0.00     0.116 C 
BRANCH  53  54
ATOM     54  NE  ARG A   6      25.165   9.466 -13.542  1.00  0.00    -0.357 N 
ATOM     55  CZ  ARG A   6      25.072  10.891 -13.370  1.00  0.00     0.185 C 
ATOM     56  NH2 ARG A   6      25.323  11.748 -14.484  1.00  0.00    -0.370 N 
ATOM     57  H   UNL     1      25.605   9.132 -14.429  1.00  0.00     0.163 HD
ATOM     58  H   UNL     1      25.542  11.349 -15.423  1.00  0.00     0.159 HD
ATOM     59  H   UNL     1      25.284  12.786 -14.374  1.00  0.00     0.159 HD
BRANCH  55  60
ATOM     60  NH1 ARG A   6      24.820  11.421 -12.214  1.00  0.00    -0.270 NA
ATOM     61  H   UNL     1      24.673  10.869 -11.343  1.00  0.00     0.191 HD
ENDBRANCH  55  60
ENDBRANCH  53  54
ENDBRANCH  52  53
ENDBRANCH  51  52
ENDBRANCH  46  51
ENDBRANCH  43  46
ENDBRANCH  41  42
BRANCH  41  62
ATOM     62  CB  ARG A   5      25.861   9.603  -6.793  1.00  0.00     0.037 C 
BRANCH  62  63
ATOM     63  CG  ARG A   5      25.166  10.860  -6.269  1.00  0.00     0.024 C 
BRANCH  63  64
ATOM     64  CD  ARG A   5      25.842  11.391  -5.013  1.00  0.00     0.116 C 
BRANCH  64  65
ATOM     65  NE  ARG A   5      25.378  10.687  -3.820  1.00  0.00    -0.357 N 
ATOM     66  CZ  ARG A   5      25.470  11.282  -2.526  1.00  0.00     0.185 C 
ATOM     67  NH2 ARG A   5      26.109  12.546  -2.351  1.00  0.00    -0.370 N 
ATOM     68  H   UNL     1      24.898   9.762  -3.912  1.00  0.00     0.163 HD
ATOM     69  H   UNL     1      26.083  13.023  -1.422  1.00  0.00     0.159 HD
ATOM     70  H   UNL     1      26.699  12.981  -3.092  1.00  0.00     0.159 HD
BRANCH  66  71
ATOM     71  NH1 ARG A   5      24.956  10.671  -1.506  1.00  0.00    -0.270 NA
ATOM     72  H   UNL     1      24.999  11.075  -0.544  1.00  0.00     0.191 HD
ENDBRANCH  66  71
ENDBRANCH  64  65
ENDBRANCH  63  64
ENDBRANCH  62  63
ENDBRANCH  41  62
ENDBRANCH   3  41
TORSDOF 31
