REMARK SMILES CC(C)C[C@H](NC(=O)[C@H](Cc1ccccc1)NC(=O)[C@@H](N)CO)C(=O)N[C@@H](CCC(N)=O)C(=O)N[C@@H](CCCNC(=N)N)C(=O)N[C@@H](CCC(N)=O)C(=O)O
REMARK SMILES IDX 24 1 25 2 26 3 5 5 6 6 7 7 8 8 9 10 17 11 18 12 19 13 20 15
REMARK SMILES IDX 21 16 22 19 23 20 10 22 11 23 12 24 16 25 13 26 15 27 14 28
REMARK SMILES IDX 4 29 2 30 1 31 3 32 27 33 33 34 35 35 34 36 36 38 44 39
REMARK SMILES IDX 46 40 45 41 47 43 53 44 54 45 55 46 48 48 49 49 50 50 51 51
REMARK SMILES IDX 52 52 37 55 38 56 39 57 40 58 41 59 43 60 42 64 28 66 29 67
REMARK SMILES IDX 30 68 31 69 32 70
REMARK H PARENT 26 4 6 9 17 14 21 17 21 18 23 21 35 37 46 42 55 47 51 53 51 54
REMARK H PARENT 40 61 43 62 43 63 42 65 31 71 31 72
ROOT
ATOM      1  C   LEU A   3      -1.316  -0.524  -0.290  1.00  0.00     0.243 C 
ATOM      2  O   LEU A   3      -1.726  -0.626   0.900  1.00  0.00    -0.273 OA
ATOM      3  N   GLN A   4      -0.281  -1.393  -0.777  1.00  0.00    -0.343 N 
ATOM      4  H   UNL     1       0.043  -1.271  -1.765  1.00  0.00     0.164 HD
ENDROOT
BRANCH   1   5
ATOM      5  CA  LEU A   3      -1.902   0.529  -1.197  1.00  0.00     0.171 C 
BRANCH   5   6
ATOM      6  N   LEU A   3      -3.204   0.996  -0.705  1.00  0.00    -0.343 N 
ATOM      7  C   PHE A   2      -4.332   0.117  -0.598  1.00  0.00     0.243 C 
ATOM      8  O   PHE A   2      -4.271  -1.049  -1.073  1.00  0.00    -0.273 OA
ATOM      9  H   UNL     1      -3.351   2.012  -0.475  1.00  0.00     0.164 HD
BRANCH   7  10
ATOM     10  CA  PHE A   2      -5.570   0.556   0.141  1.00  0.00     0.175 C 
BRANCH  10  11
ATOM     11  N   PHE A   2      -6.754  -0.101  -0.425  1.00  0.00    -0.343 N 
ATOM     12  C   SER A   1      -7.333   0.327  -1.669  1.00  0.00     0.239 C 
ATOM     13  O   SER A   1      -6.796   1.254  -2.331  1.00  0.00    -0.273 OA
ATOM     14  H   UNL     1      -7.198  -0.899   0.081  1.00  0.00     0.164 HD
BRANCH  12  15
ATOM     15  CA  SER A   1      -8.579  -0.344  -2.203  1.00  0.00     0.167 C 
BRANCH  15  16
ATOM     16  N   SER A   1      -9.690   0.607  -2.251  1.00  0.00    -0.318 NA
ATOM     17  H   UNL     1      -9.408   1.446  -2.808  1.00  0.00     0.119 HD
ATOM     18  H   UNL     1      -9.904   0.923  -1.278  1.00  0.00     0.119 HD
ENDBRANCH  15  16
BRANCH  15  19
ATOM     19  CB  SER A   1      -8.339  -0.940  -3.599  1.00  0.00     0.184 C 
BRANCH  19  20
ATOM     20  OG  SER A   1      -9.463  -1.664  -4.016  1.00  0.00    -0.394 OA
ATOM     21  H   UNL     1      -9.464  -2.501  -3.482  1.00  0.00     0.210 HD
ENDBRANCH  19  20
ENDBRANCH  15  19
ENDBRANCH  12  15
ENDBRANCH  10  11
BRANCH  10  22
ATOM     22  CB  PHE A   2      -5.411   0.215   1.635  1.00  0.00     0.070 C 
BRANCH  22  23
ATOM     23  CG  PHE A   2      -6.596   0.679   2.446  1.00  0.00    -0.045 A 
ATOM     24  CD1 PHE A   2      -6.745   2.041   2.762  1.00  0.00     0.004 A 
ATOM     25  CD2 PHE A   2      -7.584  -0.233   2.858  1.00  0.00     0.004 A 
ATOM     26  CE1 PHE A   2      -7.856   2.485   3.488  1.00  0.00     0.000 A 
ATOM     27  CE2 PHE A   2      -8.695   0.211   3.585  1.00  0.00     0.000 A 
ATOM     28  CZ  PHE A   2      -8.831   1.569   3.901  1.00  0.00     0.000 A 
ENDBRANCH  22  23
ENDBRANCH  10  22
ENDBRANCH   7  10
ENDBRANCH   5   6
BRANCH   5  29
ATOM     29  CB  LEU A   3      -0.926   1.706  -1.430  1.00  0.00     0.038 C 
BRANCH  29  30
ATOM     30  CG  LEU A   3      -0.528   2.544  -0.181  1.00  0.00    -0.015 C 
ATOM     31  CD1 LEU A   3       0.518   1.843   0.704  1.00  0.00     0.007 C 
ATOM     32  CD2 LEU A   3       0.025   3.897  -0.641  1.00  0.00     0.007 C 
ENDBRANCH  29  30
ENDBRANCH   5  29
ENDBRANCH   1   5
BRANCH   3  33
ATOM     33  CA  GLN A   4       0.422  -2.348   0.090  1.00  0.00     0.171 C 
BRANCH  33  34
ATOM     34  C   GLN A   4       1.672  -1.715   0.645  1.00  0.00     0.243 C 
ATOM     35  N   ARG A   5       2.646  -1.123  -0.229  1.00  0.00    -0.343 N 
ATOM     36  O   GLN A   4       1.861  -1.729   1.894  1.00  0.00    -0.273 OA
ATOM     37  H   UNL     1       2.444  -1.065  -1.248  1.00  0.00     0.164 HD
BRANCH  35  38
ATOM     38  CA  ARG A   5       3.933  -0.615   0.258  1.00  0.00     0.171 C 
BRANCH  38  39
ATOM     39  C   ARG A   5       4.013   0.870   0.014  1.00  0.00     0.243 C 
ATOM     40  N   GLN A   6       4.180   1.400  -1.312  1.00  0.00    -0.341 N 
ATOM     41  O   ARG A   5       3.894   1.654   0.991  1.00  0.00    -0.273 OA
ATOM     42  H   UNL     1       4.189   0.723  -2.114  1.00  0.00     0.164 HD
BRANCH  40  43
ATOM     43  CA  GLN A   6       4.484   2.816  -1.556  1.00  0.00     0.192 C 
BRANCH  43  44
ATOM     44  C   GLN A   6       4.275   3.183  -3.001  1.00  0.00     0.326 C 
ATOM     45  O   GLN A   6       4.618   2.401  -3.926  1.00  0.00    -0.250 OA
BRANCH  44  46
ATOM     46  OXT GLN A   6       3.748   4.433  -3.314  1.00  0.00    -0.480 OA
ATOM     47  H   UNL     1       3.618   4.714  -4.278  1.00  0.00     0.296 HD
ENDBRANCH  44  46
ENDBRANCH  43  44
BRANCH  43  48
ATOM     48  CB  GLN A   6       5.910   3.174  -1.085  1.00  0.00     0.047 C 
BRANCH  48  49
ATOM     49  CG  GLN A   6       7.008   2.344  -1.772  1.00  0.00     0.102 C 
BRANCH  49  50
ATOM     50  CD  GLN A   6       8.351   2.627  -1.164  1.00  0.00     0.217 C 
ATOM     51  NE2 GLN A   6       9.150   1.562  -0.643  1.00  0.00    -0.370 N 
ATOM     52  OE1 GLN A   6       8.793   3.804  -1.125  1.00  0.00    -0.275 OA
ATOM     53  H   UNL     1       8.826   0.574  -0.698  1.00  0.00     0.159 HD
ATOM     54  H   UNL     1      10.077   1.758  -0.200  1.00  0.00     0.159 HD
ENDBRANCH  49  50
ENDBRANCH  48  49
ENDBRANCH  43  48
ENDBRANCH  40  43
ENDBRANCH  38  39
BRANCH  38  55
ATOM     55  CB  ARG A   5       5.099  -1.370  -0.420  1.00  0.00     0.037 C 
BRANCH  55  56
ATOM     56  CG  ARG A   5       5.154  -2.865  -0.048  1.00  0.00     0.024 C 
BRANCH  56  57
ATOM     57  CD  ARG A   5       5.483  -3.130   1.430  1.00  0.00     0.116 C 
BRANCH  57  58
ATOM     58  NE  ARG A   5       6.757  -2.509   1.811  1.00  0.00    -0.357 N 
ATOM     59  CZ  ARG A   5       6.854  -1.253   2.513  1.00  0.00     0.185 C 
ATOM     60  NH2 ARG A   5       7.913  -0.352   2.186  1.00  0.00    -0.370 N 
ATOM     61  H   UNL     1       7.611  -2.845   1.315  1.00  0.00     0.163 HD
ATOM     62  H   UNL     1       8.603  -0.590   1.449  1.00  0.00     0.159 HD
ATOM     63  H   UNL     1       7.994   0.570   2.676  1.00  0.00     0.159 HD
BRANCH  59  64
ATOM     64  NH1 ARG A   5       6.038  -0.948   3.474  1.00  0.00    -0.270 NA
ATOM     65  H   UNL     1       5.270  -1.576   3.786  1.00  0.00     0.191 HD
ENDBRANCH  59  64
ENDBRANCH  57  58
ENDBRANCH  56  57
ENDBRANCH  55  56
ENDBRANCH  38  55
ENDBRANCH  35  38
ENDBRANCH  33  34
BRANCH  33  66
ATOM     66  CB  GLN A   4       0.753  -3.635  -0.699  1.00  0.00     0.045 C 
BRANCH  66  67
ATOM     67  CG  GLN A   4       1.318  -4.773   0.173  1.00  0.00     0.102 C 
BRANCH  67  68
ATOM     68  CD  GLN A   4       0.330  -5.260   1.195  1.00  0.00     0.217 C 
ATOM     69  NE2 GLN A   4       0.455  -4.873   2.563  1.00  0.00    -0.370 N 
ATOM     70  OE1 GLN A   4      -0.630  -5.992   0.837  1.00  0.00    -0.275 OA
ATOM     71  H   UNL     1      -0.247  -5.189   3.263  1.00  0.00     0.159 HD
ATOM     72  H   UNL     1       1.267  -4.291   2.883  1.00  0.00     0.159 HD
ENDBRANCH  67  68
ENDBRANCH  66  67
ENDBRANCH  33  66
ENDBRANCH   3  33
TORSDOF 30
