REMARK SMILES CC(C)C[C@H](NC(=O)[C@H](Cc1ccccc1)NC(=O)[C@@H](N)CO)C(=O)NCC(=O)N[C@@H](CCCNC(=N)N)C(=O)N[C@@H](CC(N)=O)C(=O)O
REMARK SMILES IDX 24 1 25 2 26 3 5 5 6 6 7 7 8 8 9 10 17 11 18 12 19 13 20 15
REMARK SMILES IDX 21 16 22 19 23 20 10 22 11 23 12 24 16 25 13 26 15 27 14 28
REMARK SMILES IDX 4 29 2 30 1 31 3 32 27 33 28 34 30 35 29 36 31 38 39 39
REMARK SMILES IDX 41 40 40 41 42 43 47 44 48 45 49 46 43 48 44 49 45 50 46 51
REMARK SMILES IDX 32 54 33 55 34 56 35 57 36 58 38 59 37 63
REMARK H PARENT 26 4 6 9 17 14 21 17 21 18 23 21 30 37 41 42 49 47 45 52 45 53
REMARK H PARENT 35 60 38 61 38 62 37 64
ROOT
ATOM      1  C   LEU A   3      20.060  10.078  -6.484  1.00  0.00     0.243 C 
ATOM      2  O   LEU A   3      20.180   9.153  -5.634  1.00  0.00    -0.273 OA
ATOM      3  N   GLY A   4      20.561   9.914  -7.799  1.00  0.00    -0.345 N 
ATOM      4  H   UNL     1      20.396  10.662  -8.511  1.00  0.00     0.164 HD
ENDROOT
BRANCH   1   5
ATOM      5  CA  LEU A   3      19.344  11.349  -6.148  1.00  0.00     0.171 C 
BRANCH   5   6
ATOM      6  N   LEU A   3      18.085  11.016  -5.540  1.00  0.00    -0.343 N 
ATOM      7  C   PHE A   2      16.889  11.744  -5.775  1.00  0.00     0.243 C 
ATOM      8  O   PHE A   2      16.908  12.795  -6.473  1.00  0.00    -0.273 OA
ATOM      9  H   UNL     1      18.158  10.378  -4.724  1.00  0.00     0.164 HD
BRANCH   7  10
ATOM     10  CA  PHE A   2      15.653  11.313  -5.056  1.00  0.00     0.175 C 
BRANCH  10  11
ATOM     11  N   PHE A   2      14.457  11.740  -5.769  1.00  0.00    -0.343 N 
ATOM     12  C   SER A   1      13.915  13.049  -5.637  1.00  0.00     0.239 C 
ATOM     13  O   SER A   1      14.442  13.869  -4.836  1.00  0.00    -0.273 OA
ATOM     14  H   UNL     1      13.878  11.000  -6.222  1.00  0.00     0.164 HD
BRANCH  12  15
ATOM     15  CA  SER A   1      12.661  13.410  -6.390  1.00  0.00     0.167 C 
BRANCH  15  16
ATOM     16  N   SER A   1      12.475  14.862  -6.375  1.00  0.00    -0.318 NA
ATOM     17  H   UNL     1      13.175  15.314  -7.009  1.00  0.00     0.119 HD
ATOM     18  H   UNL     1      11.521  15.089  -6.739  1.00  0.00     0.119 HD
ENDBRANCH  15  16
BRANCH  15  19
ATOM     19  CB  SER A   1      12.688  12.877  -7.844  1.00  0.00     0.184 C 
BRANCH  19  20
ATOM     20  OG  SER A   1      11.436  13.047  -8.450  1.00  0.00    -0.394 OA
ATOM     21  H   UNL     1      11.447  13.936  -8.892  1.00  0.00     0.210 HD
ENDBRANCH  19  20
ENDBRANCH  15  19
ENDBRANCH  12  15
ENDBRANCH  10  11
BRANCH  10  22
ATOM     22  CB  PHE A   2      15.611   9.774  -4.879  1.00  0.00     0.070 C 
BRANCH  22  23
ATOM     23  CG  PHE A   2      14.435   9.293  -4.092  1.00  0.00    -0.045 A 
ATOM     24  CD1 PHE A   2      13.897  10.048  -3.033  1.00  0.00     0.004 A 
ATOM     25  CD2 PHE A   2      13.964   7.991  -4.310  1.00  0.00     0.004 A 
ATOM     26  CE1 PHE A   2      12.865   9.535  -2.258  1.00  0.00     0.000 A 
ATOM     27  CE2 PHE A   2      12.937   7.477  -3.520  1.00  0.00     0.000 A 
ATOM     28  CZ  PHE A   2      12.384   8.252  -2.500  1.00  0.00     0.000 A 
ENDBRANCH  22  23
ENDBRANCH  10  22
ENDBRANCH   7  10
ENDBRANCH   5   6
BRANCH   5  29
ATOM     29  CB  LEU A   3      20.165  12.249  -5.216  1.00  0.00     0.038 C 
BRANCH  29  30
ATOM     30  CG  LEU A   3      20.417  11.677  -3.792  1.00  0.00    -0.015 C 
ATOM     31  CD1 LEU A   3      21.819  12.065  -3.316  1.00  0.00     0.007 C 
ATOM     32  CD2 LEU A   3      19.368  12.167  -2.782  1.00  0.00     0.007 C 
ENDBRANCH  29  30
ENDBRANCH   5  29
ENDBRANCH   1   5
BRANCH   3  33
ATOM     33  CA  GLY A   4      21.333   8.757  -8.203  1.00  0.00     0.216 C 
BRANCH  33  34
ATOM     34  C   GLY A   4      22.707   9.205  -8.540  1.00  0.00     0.240 C 
ATOM     35  N   ARG A   5      23.807   8.709  -7.788  1.00  0.00    -0.343 N 
ATOM     36  O   GLY A   4      22.885  10.031  -9.475  1.00  0.00    -0.273 OA
ATOM     37  H   UNL     1      23.640   7.993  -7.045  1.00  0.00     0.164 HD
BRANCH  35  38
ATOM     38  CA  ARG A   5      25.175   9.114  -8.068  1.00  0.00     0.171 C 
BRANCH  38  39
ATOM     39  C   ARG A   5      25.896   7.965  -8.683  1.00  0.00     0.243 C 
ATOM     40  N   ASN A   6      25.915   7.866 -10.101  1.00  0.00    -0.341 N 
ATOM     41  O   ARG A   5      26.447   7.085  -7.969  1.00  0.00    -0.273 OA
ATOM     42  H   UNL     1      25.495   8.652 -10.649  1.00  0.00     0.164 HD
BRANCH  40  43
ATOM     43  CA  ASN A   6      26.543   6.752 -10.803  1.00  0.00     0.201 C 
BRANCH  43  44
ATOM     44  C   ASN A   6      27.993   6.642 -10.416  1.00  0.00     0.326 C 
ATOM     45  O   ASN A   6      28.795   7.579 -10.677  1.00  0.00    -0.250 OA
BRANCH  44  46
ATOM     46  OXT ASN A   6      28.452   5.499  -9.769  1.00  0.00    -0.480 OA
ATOM     47  H   UNL     1      29.425   5.409  -9.501  1.00  0.00     0.296 HD
ENDBRANCH  44  46
ENDBRANCH  43  44
BRANCH  43  48
ATOM     48  CB  ASN A   6      26.424   6.947 -12.323  1.00  0.00     0.136 C 
BRANCH  48  49
ATOM     49  CG  ASN A   6      25.010   7.182 -12.772  1.00  0.00     0.220 C 
ATOM     50  ND2 ASN A   6      24.754   8.089 -13.834  1.00  0.00    -0.370 N 
ATOM     51  OD1 ASN A   6      24.051   6.563 -12.238  1.00  0.00    -0.275 OA
ATOM     52  H   UNL     1      23.775   8.257 -14.157  1.00  0.00     0.159 HD
ATOM     53  H   UNL     1      25.534   8.596 -14.309  1.00  0.00     0.159 HD
ENDBRANCH  48  49
ENDBRANCH  43  48
ENDBRANCH  40  43
ENDBRANCH  38  39
BRANCH  38  54
ATOM     54  CB  ARG A   5      25.851   9.597  -6.790  1.00  0.00     0.037 C 
BRANCH  54  55
ATOM     55  CG  ARG A   5      25.162  10.858  -6.269  1.00  0.00     0.024 C 
BRANCH  55  56
ATOM     56  CD  ARG A   5      25.838  11.390  -5.014  1.00  0.00     0.116 C 
BRANCH  56  57
ATOM     57  NE  ARG A   5      25.377  10.686  -3.820  1.00  0.00    -0.357 N 
ATOM     58  CZ  ARG A   5      25.469  11.281  -2.526  1.00  0.00     0.185 C 
ATOM     59  NH2 ARG A   5      26.108  12.546  -2.352  1.00  0.00    -0.370 N 
ATOM     60  H   UNL     1      24.893   9.763  -3.911  1.00  0.00     0.163 HD
ATOM     61  H   UNL     1      26.080  13.024  -1.424  1.00  0.00     0.159 HD
ATOM     62  H   UNL     1      26.697  12.982  -3.094  1.00  0.00     0.159 HD
BRANCH  58  63
ATOM     63  NH1 ARG A   5      24.955  10.672  -1.506  1.00  0.00    -0.270 NA
ATOM     64  H   UNL     1      24.996  11.077  -0.545  1.00  0.00     0.191 HD
ENDBRANCH  58  63
ENDBRANCH  56  57
ENDBRANCH  55  56
ENDBRANCH  54  55
ENDBRANCH  38  54
ENDBRANCH  35  38
ENDBRANCH  33  34
ENDBRANCH   3  33
TORSDOF 26
