REMARK SMILES CC(C)C[C@H](NC(=O)CNC(=O)[C@H](Cc1ccccc1)NC(=O)[C@@H](N)CO)C(=O)N[C@@H](CCCNC(=N)N)C(=O)NCC(=O)O
REMARK SMILES IDX 7 1 8 2 6 3 9 5 10 6 11 7 12 8 13 10 21 11 22 12 23 13 24 15
REMARK SMILES IDX 25 16 26 19 27 20 14 22 15 23 16 24 20 25 17 26 19 27 18 28
REMARK SMILES IDX 5 29 28 30 30 31 29 32 31 34 39 35 41 36 40 37 42 39 43 40
REMARK SMILES IDX 44 41 45 42 32 44 33 45 34 46 35 47 36 48 38 49 37 53 4 55
REMARK SMILES IDX 2 56 1 57 3 58
REMARK H PARENT 6 4 10 9 21 14 25 17 25 18 27 21 30 33 41 38 45 43 35 50 38 51
REMARK H PARENT 38 52 37 54
ROOT
ATOM      1  C   GLY A   3      20.042  10.101  -6.466  1.00  0.00     0.240 C 
ATOM      2  O   GLY A   3      20.173   9.205  -5.586  1.00  0.00    -0.273 OA
ATOM      3  N   LEU A   4      20.558   9.918  -7.775  1.00  0.00    -0.343 N 
ATOM      4  H   UNL     1      20.388  10.651  -8.503  1.00  0.00     0.164 HD
ENDROOT
BRANCH   1   5
ATOM      5  CA  GLY A   3      19.352  11.377  -6.153  1.00  0.00     0.216 C 
BRANCH   5   6
ATOM      6  N   GLY A   3      18.112  11.084  -5.477  1.00  0.00    -0.345 N 
ATOM      7  C   PHE A   2      16.897  11.758  -5.771  1.00  0.00     0.243 C 
ATOM      8  O   PHE A   2      16.902  12.792  -6.493  1.00  0.00    -0.273 OA
ATOM      9  H   UNL     1      18.214  10.612  -4.552  1.00  0.00     0.164 HD
BRANCH   7  10
ATOM     10  CA  PHE A   2      15.659  11.317  -5.060  1.00  0.00     0.175 C 
BRANCH  10  11
ATOM     11  N   PHE A   2      14.460  11.740  -5.770  1.00  0.00    -0.343 N 
ATOM     12  C   SER A   1      13.916  13.049  -5.638  1.00  0.00     0.239 C 
ATOM     13  O   SER A   1      14.441  13.870  -4.836  1.00  0.00    -0.273 OA
ATOM     14  H   UNL     1      13.876  10.998  -6.213  1.00  0.00     0.164 HD
BRANCH  12  15
ATOM     15  CA  SER A   1      12.662  13.408  -6.392  1.00  0.00     0.167 C 
BRANCH  15  16
ATOM     16  N   SER A   1      12.471  14.860  -6.379  1.00  0.00    -0.318 NA
ATOM     17  H   UNL     1      11.538  15.085  -6.793  1.00  0.00     0.119 HD
ATOM     18  H   UNL     1      13.200  15.315  -6.977  1.00  0.00     0.119 HD
ENDBRANCH  15  16
BRANCH  15  19
ATOM     19  CB  SER A   1      12.691  12.877  -7.846  1.00  0.00     0.184 C 
BRANCH  19  20
ATOM     20  OG  SER A   1      11.437  13.052  -8.442  1.00  0.00    -0.394 OA
ATOM     21  H   UNL     1      11.538  12.776  -9.391  1.00  0.00     0.210 HD
ENDBRANCH  19  20
ENDBRANCH  15  19
ENDBRANCH  12  15
ENDBRANCH  10  11
BRANCH  10  22
ATOM     22  CB  PHE A   2      15.628   9.779  -4.890  1.00  0.00     0.070 C 
BRANCH  22  23
ATOM     23  CG  PHE A   2      14.456   9.290  -4.087  1.00  0.00    -0.045 A 
ATOM     24  CD1 PHE A   2      13.910  10.047  -3.033  1.00  0.00     0.004 A 
ATOM     25  CD2 PHE A   2      13.977   7.991  -4.311  1.00  0.00     0.004 A 
ATOM     26  CE1 PHE A   2      12.872   9.537  -2.263  1.00  0.00     0.000 A 
ATOM     27  CE2 PHE A   2      12.944   7.479  -3.524  1.00  0.00     0.000 A 
ATOM     28  CZ  PHE A   2      12.389   8.254  -2.506  1.00  0.00     0.000 A 
ENDBRANCH  22  23
ENDBRANCH  10  22
ENDBRANCH   7  10
ENDBRANCH   5   6
ENDBRANCH   1   5
BRANCH   3  29
ATOM     29  CA  LEU A   4      21.346   8.758  -8.137  1.00  0.00     0.171 C 
BRANCH  29  30
ATOM     30  C   LEU A   4      22.711   9.217  -8.521  1.00  0.00     0.243 C 
ATOM     31  N   ARG A   5      23.823   8.719  -7.792  1.00  0.00    -0.343 N 
ATOM     32  O   LEU A   4      22.872  10.034  -9.468  1.00  0.00    -0.273 OA
ATOM     33  H   UNL     1      23.670   8.030  -7.021  1.00  0.00     0.164 HD
BRANCH  31  34
ATOM     34  CA  ARG A   5      25.185   9.119  -8.087  1.00  0.00     0.171 C 
BRANCH  34  35
ATOM     35  C   ARG A   5      25.897   7.960  -8.698  1.00  0.00     0.243 C 
ATOM     36  N   GLY A   6      25.891   7.823 -10.117  1.00  0.00    -0.343 N 
ATOM     37  O   ARG A   5      26.453   7.092  -7.973  1.00  0.00    -0.273 OA
ATOM     38  H   UNL     1      25.398   8.536 -10.701  1.00  0.00     0.164 HD
BRANCH  36  39
ATOM     39  CA  GLY A   6      26.551   6.716 -10.794  1.00  0.00     0.238 C 
BRANCH  39  40
ATOM     40  C   GLY A   6      28.000   6.644 -10.414  1.00  0.00     0.322 C 
ATOM     41  O   GLY A   6      28.781   7.588 -10.704  1.00  0.00    -0.250 OA
BRANCH  40  42
ATOM     42  OXT GLY A   6      28.483   5.528  -9.737  1.00  0.00    -0.480 OA
ATOM     43  H   UNL     1      29.458   5.464  -9.470  1.00  0.00     0.296 HD
ENDBRANCH  40  42
ENDBRANCH  39  40
ENDBRANCH  36  39
ENDBRANCH  34  35
BRANCH  34  44
ATOM     44  CB  ARG A   5      25.865   9.606  -6.809  1.00  0.00     0.037 C 
BRANCH  44  45
ATOM     45  CG  ARG A   5      25.167  10.858  -6.276  1.00  0.00     0.024 C 
BRANCH  45  46
ATOM     46  CD  ARG A   5      25.843  11.388  -5.018  1.00  0.00     0.116 C 
BRANCH  46  47
ATOM     47  NE  ARG A   5      25.378  10.683  -3.825  1.00  0.00    -0.357 N 
ATOM     48  CZ  ARG A   5      25.469  11.278  -2.529  1.00  0.00     0.185 C 
ATOM     49  NH2 ARG A   5      26.106  12.541  -2.352  1.00  0.00    -0.370 N 
ATOM     50  H   UNL     1      24.906   9.755  -3.923  1.00  0.00     0.163 HD
ATOM     51  H   UNL     1      26.084  13.006  -1.417  1.00  0.00     0.159 HD
ATOM     52  H   UNL     1      26.692  12.982  -3.092  1.00  0.00     0.159 HD
BRANCH  48  53
ATOM     53  NH1 ARG A   5      24.959  10.678  -1.501  1.00  0.00    -0.270 NA
ATOM     54  H   UNL     1      24.479   9.754  -1.585  1.00  0.00     0.191 HD
ENDBRANCH  48  53
ENDBRANCH  46  47
ENDBRANCH  45  46
ENDBRANCH  44  45
ENDBRANCH  34  44
ENDBRANCH  31  34
ENDBRANCH  29  30
BRANCH  29  55
ATOM     55  CB  LEU A   4      20.655   7.997  -9.271  1.00  0.00     0.038 C 
BRANCH  55  56
ATOM     56  CG  LEU A   4      21.449   6.769  -9.769  1.00  0.00    -0.015 C 
ATOM     57  CD1 LEU A   4      21.764   5.778  -8.639  1.00  0.00     0.007 C 
ATOM     58  CD2 LEU A   4      20.659   6.065 -10.876  1.00  0.00     0.007 C 
ENDBRANCH  55  56
ENDBRANCH  29  55
ENDBRANCH   3  29
TORSDOF 24
