REMARK SMILES CC(C)C[C@H](NC(=O)[C@H](Cc1ccccc1)NC(=O)[C@@H](N)CO)C(=O)N[C@@H](CCCNC(=N)N)C(=O)N[C@@H](CCCNC(=N)N)C(=O)N[C@@H](Cc1c[nH]cn1)C(=O)O
REMARK SMILES IDX 24 1 25 2 26 3 5 5 6 6 7 7 8 8 9 10 17 11 18 12 19 13 20 15
REMARK SMILES IDX 21 16 22 19 23 20 10 22 11 23 12 24 16 25 13 26 15 27 14 28
REMARK SMILES IDX 4 29 2 30 1 31 3 32 27 33 35 34 37 35 36 36 38 38 46 39
REMARK SMILES IDX 48 40 47 41 49 43 56 44 57 45 58 46 50 48 51 49 55 50 52 51
REMARK SMILES IDX 54 52 53 53 39 55 40 56 41 57 42 58 43 59 45 60 44 64 28 66
REMARK SMILES IDX 29 67 30 68 31 69 32 70 34 71 33 75
REMARK H PARENT 26 4 6 9 17 14 21 17 21 18 23 21 37 37 48 42 58 47 53 54 42 61
REMARK H PARENT 45 62 45 63 44 65 31 72 34 73 34 74 33 76
ROOT
ATOM      1  C   LEU A   3      20.051  10.087  -6.477  1.00  0.00     0.243 C 
ATOM      2  O   LEU A   3      20.162   9.162  -5.625  1.00  0.00    -0.273 OA
ATOM      3  N   ARG A   4      20.567   9.922  -7.786  1.00  0.00    -0.343 N 
ATOM      4  H   UNL     1      20.403  10.663  -8.506  1.00  0.00     0.164 HD
ENDROOT
BRANCH   1   5
ATOM      5  CA  LEU A   3      19.339  11.356  -6.146  1.00  0.00     0.171 C 
BRANCH   5   6
ATOM      6  N   LEU A   3      18.082  11.022  -5.537  1.00  0.00    -0.343 N 
ATOM      7  C   PHE A   2      16.885  11.746  -5.776  1.00  0.00     0.243 C 
ATOM      8  O   PHE A   2      16.903  12.796  -6.475  1.00  0.00    -0.273 OA
ATOM      9  H   UNL     1      18.154  10.389  -4.716  1.00  0.00     0.164 HD
BRANCH   7  10
ATOM     10  CA  PHE A   2      15.650  11.312  -5.057  1.00  0.00     0.175 C 
BRANCH  10  11
ATOM     11  N   PHE A   2      14.453  11.739  -5.768  1.00  0.00    -0.343 N 
ATOM     12  C   SER A   1      13.915  13.050  -5.636  1.00  0.00     0.239 C 
ATOM     13  O   SER A   1      14.449  13.869  -4.839  1.00  0.00    -0.273 OA
ATOM     14  H   UNL     1      13.863  11.000  -6.209  1.00  0.00     0.164 HD
BRANCH  12  15
ATOM     15  CA  SER A   1      12.655  13.410  -6.383  1.00  0.00     0.167 C 
BRANCH  15  16
ATOM     16  N   SER A   1      12.467  14.862  -6.382  1.00  0.00    -0.318 NA
ATOM     17  H   UNL     1      11.581  15.087  -6.890  1.00  0.00     0.119 HD
ATOM     18  H   UNL     1      12.304  15.174  -5.396  1.00  0.00     0.119 HD
ENDBRANCH  15  16
BRANCH  15  19
ATOM     19  CB  SER A   1      12.695  12.893  -7.842  1.00  0.00     0.184 C 
BRANCH  19  20
ATOM     20  OG  SER A   1      11.440  13.037  -8.449  1.00  0.00    -0.394 OA
ATOM     21  H   UNL     1      10.855  12.333  -8.065  1.00  0.00     0.210 HD
ENDBRANCH  19  20
ENDBRANCH  15  19
ENDBRANCH  12  15
ENDBRANCH  10  11
BRANCH  10  22
ATOM     22  CB  PHE A   2      15.609   9.773  -4.882  1.00  0.00     0.070 C 
BRANCH  22  23
ATOM     23  CG  PHE A   2      14.435   9.292  -4.092  1.00  0.00    -0.045 A 
ATOM     24  CD1 PHE A   2      13.898  10.048  -3.033  1.00  0.00     0.004 A 
ATOM     25  CD2 PHE A   2      13.964   7.990  -4.310  1.00  0.00     0.004 A 
ATOM     26  CE1 PHE A   2      12.866   9.535  -2.258  1.00  0.00     0.000 A 
ATOM     27  CE2 PHE A   2      12.937   7.476  -3.520  1.00  0.00     0.000 A 
ATOM     28  CZ  PHE A   2      12.384   8.251  -2.500  1.00  0.00     0.000 A 
ENDBRANCH  22  23
ENDBRANCH  10  22
ENDBRANCH   7  10
ENDBRANCH   5   6
BRANCH   5  29
ATOM     29  CB  LEU A   3      20.164  12.254  -5.215  1.00  0.00     0.038 C 
BRANCH  29  30
ATOM     30  CG  LEU A   3      20.417  11.680  -3.791  1.00  0.00    -0.015 C 
ATOM     31  CD1 LEU A   3      21.819  12.066  -3.316  1.00  0.00     0.007 C 
ATOM     32  CD2 LEU A   3      19.369  12.170  -2.780  1.00  0.00     0.007 C 
ENDBRANCH  29  30
ENDBRANCH   5  29
ENDBRANCH   1   5
BRANCH   3  33
ATOM     33  CA  ARG A   4      21.350   8.760  -8.152  1.00  0.00     0.171 C 
BRANCH  33  34
ATOM     34  C   ARG A   4      22.715   9.216  -8.526  1.00  0.00     0.243 C 
ATOM     35  N   ARG A   5      23.822   8.720  -7.786  1.00  0.00    -0.343 N 
ATOM     36  O   ARG A   4      22.882  10.034  -9.471  1.00  0.00    -0.273 OA
ATOM     37  H   UNL     1      23.664   8.029  -7.018  1.00  0.00     0.164 HD
BRANCH  35  38
ATOM     38  CA  ARG A   5      25.186   9.121  -8.072  1.00  0.00     0.171 C 
BRANCH  38  39
ATOM     39  C   ARG A   5      25.899   7.967  -8.687  1.00  0.00     0.243 C 
ATOM     40  N   HIS A   6      25.907   7.866 -10.104  1.00  0.00    -0.341 N 
ATOM     41  O   ARG A   5      26.449   7.085  -7.973  1.00  0.00    -0.273 OA
ATOM     42  H   UNL     1      25.478   8.651 -10.645  1.00  0.00     0.164 HD
BRANCH  40  43
ATOM     43  CA  HIS A   6      26.535   6.760 -10.819  1.00  0.00     0.198 C 
BRANCH  43  44
ATOM     44  C   HIS A   6      27.986   6.644 -10.428  1.00  0.00     0.326 C 
ATOM     45  O   HIS A   6      28.791   7.580 -10.681  1.00  0.00    -0.250 OA
BRANCH  44  46
ATOM     46  OXT HIS A   6      28.439   5.496  -9.788  1.00  0.00    -0.480 OA
ATOM     47  H   UNL     1      29.411   5.401  -9.517  1.00  0.00     0.296 HD
ENDBRANCH  44  46
ENDBRANCH  43  44
BRANCH  43  48
ATOM     48  CB  HIS A   6      26.413   6.977 -12.338  1.00  0.00     0.094 C 
BRANCH  48  49
ATOM     49  CG  HIS A   6      24.983   7.151 -12.767  1.00  0.00     0.061 A 
ATOM     50  ND1 HIS A   6      24.449   8.323 -13.167  1.00  0.00    -0.242 NA
ATOM     51  CD2 HIS A   6      24.010   6.176 -12.745  1.00  0.00     0.107 A 
ATOM     52  CE1 HIS A   6      23.150   8.027 -13.388  1.00  0.00     0.196 A 
ATOM     53  NE2 HIS A   6      22.858   6.737 -13.140  1.00  0.00    -0.351 N 
ATOM     54  H   UNL     1      21.926   6.273 -13.225  1.00  0.00     0.167 HD
ENDBRANCH  48  49
ENDBRANCH  43  48
ENDBRANCH  40  43
ENDBRANCH  38  39
BRANCH  38  55
ATOM     55  CB  ARG A   5      25.862   9.603  -6.794  1.00  0.00     0.037 C 
BRANCH  55  56
ATOM     56  CG  ARG A   5      25.165  10.858  -6.269  1.00  0.00     0.024 C 
BRANCH  56  57
ATOM     57  CD  ARG A   5      25.840  11.391  -5.013  1.00  0.00     0.116 C 
BRANCH  57  58
ATOM     58  NE  ARG A   5      25.378  10.686  -3.820  1.00  0.00    -0.357 N 
ATOM     59  CZ  ARG A   5      25.469  11.281  -2.526  1.00  0.00     0.185 C 
ATOM     60  NH2 ARG A   5      26.107  12.546  -2.351  1.00  0.00    -0.370 N 
ATOM     61  H   UNL     1      24.895   9.763  -3.912  1.00  0.00     0.163 HD
ATOM     62  H   UNL     1      26.697  12.982  -3.093  1.00  0.00     0.159 HD
ATOM     63  H   UNL     1      26.079  13.024  -1.423  1.00  0.00     0.159 HD
BRANCH  59  64
ATOM     64  NH1 ARG A   5      24.954  10.672  -1.507  1.00  0.00    -0.270 NA
ATOM     65  H   UNL     1      24.995  11.077  -0.545  1.00  0.00     0.191 HD
ENDBRANCH  59  64
ENDBRANCH  57  58
ENDBRANCH  56  57
ENDBRANCH  55  56
ENDBRANCH  38  55
ENDBRANCH  35  38
ENDBRANCH  33  34
BRANCH  33  66
ATOM     66  CB  ARG A   4      20.661   8.003  -9.289  1.00  0.00     0.037 C 
BRANCH  66  67
ATOM     67  CG  ARG A   4      21.450   6.772  -9.769  1.00  0.00     0.024 C 
BRANCH  67  68
ATOM     68  CD  ARG A   4      21.768   5.760  -8.656  1.00  0.00     0.116 C 
BRANCH  68  69
ATOM     69  NE  ARG A   4      20.567   5.381  -7.908  1.00  0.00    -0.357 N 
ATOM     70  CZ  ARG A   4      19.478   4.606  -8.441  1.00  0.00     0.185 C 
ATOM     71  NH2 ARG A   4      18.257   4.519  -7.705  1.00  0.00    -0.370 N 
ATOM     72  H   UNL     1      20.487   5.722  -6.923  1.00  0.00     0.163 HD
ATOM     73  H   UNL     1      18.146   5.027  -6.800  1.00  0.00     0.159 HD
ATOM     74  H   UNL     1      17.458   3.953  -8.067  1.00  0.00     0.159 HD
BRANCH  70  75
ATOM     75  NH1 ARG A   4      19.583   3.963  -9.563  1.00  0.00    -0.270 NA
ATOM     76  H   UNL     1      20.444   3.959 -10.150  1.00  0.00     0.191 HD
ENDBRANCH  70  75
ENDBRANCH  68  69
ENDBRANCH  67  68
ENDBRANCH  66  67
ENDBRANCH  33  66
ENDBRANCH   3  33
TORSDOF 31
