REMARK SMILES CC(C)C[C@H](NC(=O)[C@H](Cc1ccccc1)NC(=O)[C@@H](N)CO)C(=O)N[C@@H](CCC(N)=O)C(=O)N[C@@H](CCCNC(=N)N)C(=O)N[C@@H](Cc1c[nH]cn1)C(=O)O
REMARK SMILES IDX 24 1 25 2 26 3 5 5 6 6 7 7 8 8 9 10 17 11 18 12 19 13 20 15
REMARK SMILES IDX 21 16 22 19 23 20 10 22 11 23 12 24 16 25 13 26 15 27 14 28
REMARK SMILES IDX 4 29 2 30 1 31 3 32 27 33 33 34 35 35 34 36 36 38 44 39
REMARK SMILES IDX 46 40 45 41 47 43 54 44 55 45 56 46 48 48 49 49 53 50 50 51
REMARK SMILES IDX 52 52 51 53 37 55 38 56 39 57 40 58 41 59 43 60 42 64 28 66
REMARK SMILES IDX 29 67 30 68 31 69 32 70
REMARK H PARENT 26 4 6 9 17 14 21 17 21 18 23 21 35 37 46 42 56 47 51 54 40 61
REMARK H PARENT 43 62 43 63 42 65 31 71 31 72
ROOT
ATOM      1  C   LEU A   3      20.052  10.085  -6.477  1.00  0.00     0.243 C 
ATOM      2  O   LEU A   3      20.164   9.161  -5.624  1.00  0.00    -0.273 OA
ATOM      3  N   GLN A   4      20.566   9.917  -7.786  1.00  0.00    -0.343 N 
ATOM      4  H   UNL     1      20.400  10.656  -8.508  1.00  0.00     0.164 HD
ENDROOT
BRANCH   1   5
ATOM      5  CA  LEU A   3      19.340  11.354  -6.147  1.00  0.00     0.171 C 
BRANCH   5   6
ATOM      6  N   LEU A   3      18.083  11.021  -5.537  1.00  0.00    -0.343 N 
ATOM      7  C   PHE A   2      16.886  11.746  -5.775  1.00  0.00     0.243 C 
ATOM      8  O   PHE A   2      16.905  12.796  -6.474  1.00  0.00    -0.273 OA
ATOM      9  H   UNL     1      18.155  10.388  -4.717  1.00  0.00     0.164 HD
BRANCH   7  10
ATOM     10  CA  PHE A   2      15.651  11.313  -5.056  1.00  0.00     0.175 C 
BRANCH  10  11
ATOM     11  N   PHE A   2      14.455  11.740  -5.767  1.00  0.00    -0.343 N 
ATOM     12  C   SER A   1      13.916  13.050  -5.637  1.00  0.00     0.239 C 
ATOM     13  O   SER A   1      14.444  13.870  -4.836  1.00  0.00    -0.273 OA
ATOM     14  H   UNL     1      13.868  11.000  -6.212  1.00  0.00     0.164 HD
BRANCH  12  15
ATOM     15  CA  SER A   1      12.662  13.410  -6.389  1.00  0.00     0.167 C 
BRANCH  15  16
ATOM     16  N   SER A   1      12.472  14.862  -6.376  1.00  0.00    -0.318 NA
ATOM     17  H   UNL     1      13.202  15.317  -6.972  1.00  0.00     0.119 HD
ATOM     18  H   UNL     1      11.539  15.086  -6.793  1.00  0.00     0.119 HD
ENDBRANCH  15  16
BRANCH  15  19
ATOM     19  CB  SER A   1      12.687  12.878  -7.844  1.00  0.00     0.184 C 
BRANCH  19  20
ATOM     20  OG  SER A   1      11.437  13.047  -8.451  1.00  0.00    -0.394 OA
ATOM     21  H   UNL     1      10.831  12.368  -8.054  1.00  0.00     0.210 HD
ENDBRANCH  19  20
ENDBRANCH  15  19
ENDBRANCH  12  15
ENDBRANCH  10  11
BRANCH  10  22
ATOM     22  CB  PHE A   2      15.610   9.774  -4.880  1.00  0.00     0.070 C 
BRANCH  22  23
ATOM     23  CG  PHE A   2      14.435   9.292  -4.091  1.00  0.00    -0.045 A 
ATOM     24  CD1 PHE A   2      13.898  10.048  -3.033  1.00  0.00     0.004 A 
ATOM     25  CD2 PHE A   2      13.964   7.991  -4.310  1.00  0.00     0.004 A 
ATOM     26  CE1 PHE A   2      12.866   9.535  -2.258  1.00  0.00     0.000 A 
ATOM     27  CE2 PHE A   2      12.937   7.477  -3.520  1.00  0.00     0.000 A 
ATOM     28  CZ  PHE A   2      12.384   8.251  -2.500  1.00  0.00     0.000 A 
ENDBRANCH  22  23
ENDBRANCH  10  22
ENDBRANCH   7  10
ENDBRANCH   5   6
BRANCH   5  29
ATOM     29  CB  LEU A   3      20.164  12.253  -5.215  1.00  0.00     0.038 C 
BRANCH  29  30
ATOM     30  CG  LEU A   3      20.417  11.679  -3.791  1.00  0.00    -0.015 C 
ATOM     31  CD1 LEU A   3      21.819  12.066  -3.316  1.00  0.00     0.007 C 
ATOM     32  CD2 LEU A   3      19.369  12.170  -2.780  1.00  0.00     0.007 C 
ENDBRANCH  29  30
ENDBRANCH   5  29
ENDBRANCH   1   5
BRANCH   3  33
ATOM     33  CA  GLN A   4      21.349   8.754  -8.153  1.00  0.00     0.171 C 
BRANCH  33  34
ATOM     34  C   GLN A   4      22.715   9.212  -8.527  1.00  0.00     0.243 C 
ATOM     35  N   ARG A   5      23.822   8.713  -7.790  1.00  0.00    -0.343 N 
ATOM     36  O   GLN A   4      22.881  10.034  -9.469  1.00  0.00    -0.273 OA
ATOM     37  H   UNL     1      23.665   7.994  -7.047  1.00  0.00     0.164 HD
BRANCH  35  38
ATOM     38  CA  ARG A   5      25.185   9.119  -8.072  1.00  0.00     0.171 C 
BRANCH  38  39
ATOM     39  C   ARG A   5      25.902   7.968  -8.687  1.00  0.00     0.243 C 
ATOM     40  N   HIS A   6      25.908   7.866 -10.104  1.00  0.00    -0.341 N 
ATOM     41  O   ARG A   5      26.452   7.086  -7.974  1.00  0.00    -0.273 OA
ATOM     42  H   UNL     1      25.477   8.650 -10.645  1.00  0.00     0.164 HD
BRANCH  40  43
ATOM     43  CA  HIS A   6      26.536   6.760 -10.819  1.00  0.00     0.198 C 
BRANCH  43  44
ATOM     44  C   HIS A   6      27.986   6.644 -10.429  1.00  0.00     0.326 C 
ATOM     45  O   HIS A   6      28.791   7.580 -10.681  1.00  0.00    -0.250 OA
BRANCH  44  46
ATOM     46  OXT HIS A   6      28.440   5.495  -9.788  1.00  0.00    -0.480 OA
ATOM     47  H   UNL     1      29.411   5.400  -9.518  1.00  0.00     0.296 HD
ENDBRANCH  44  46
ENDBRANCH  43  44
BRANCH  43  48
ATOM     48  CB  HIS A   6      26.414   6.977 -12.338  1.00  0.00     0.094 C 
BRANCH  48  49
ATOM     49  CG  HIS A   6      24.984   7.151 -12.767  1.00  0.00     0.061 A 
ATOM     50  ND1 HIS A   6      24.453   8.322 -13.175  1.00  0.00    -0.242 NA
ATOM     51  CD2 HIS A   6      24.008   6.179 -12.739  1.00  0.00     0.107 A 
ATOM     52  CE1 HIS A   6      23.153   8.028 -13.395  1.00  0.00     0.196 A 
ATOM     53  NE2 HIS A   6      22.858   6.740 -13.139  1.00  0.00    -0.351 N 
ATOM     54  H   UNL     1      21.926   6.277 -13.222  1.00  0.00     0.167 HD
ENDBRANCH  48  49
ENDBRANCH  43  48
ENDBRANCH  40  43
ENDBRANCH  38  39
BRANCH  38  55
ATOM     55  CB  ARG A   5      25.859   9.601  -6.792  1.00  0.00     0.037 C 
BRANCH  55  56
ATOM     56  CG  ARG A   5      25.164  10.857  -6.269  1.00  0.00     0.024 C 
BRANCH  56  57
ATOM     57  CD  ARG A   5      25.839  11.390  -5.014  1.00  0.00     0.116 C 
BRANCH  57  58
ATOM     58  NE  ARG A   5      25.378  10.686  -3.820  1.00  0.00    -0.357 N 
ATOM     59  CZ  ARG A   5      25.469  11.281  -2.526  1.00  0.00     0.185 C 
ATOM     60  NH2 ARG A   5      26.107  12.546  -2.352  1.00  0.00    -0.370 N 
ATOM     61  H   UNL     1      24.894   9.763  -3.911  1.00  0.00     0.163 HD
ATOM     62  H   UNL     1      26.696  12.982  -3.093  1.00  0.00     0.159 HD
ATOM     63  H   UNL     1      26.080  13.024  -1.423  1.00  0.00     0.159 HD
BRANCH  59  64
ATOM     64  NH1 ARG A   5      24.954  10.672  -1.507  1.00  0.00    -0.270 NA
ATOM     65  H   UNL     1      24.995  11.077  -0.545  1.00  0.00     0.191 HD
ENDBRANCH  59  64
ENDBRANCH  57  58
ENDBRANCH  56  57
ENDBRANCH  55  56
ENDBRANCH  38  55
ENDBRANCH  35  38
ENDBRANCH  33  34
BRANCH  33  66
ATOM     66  CB  GLN A   4      20.660   7.993  -9.289  1.00  0.00     0.045 C 
BRANCH  66  67
ATOM     67  CG  GLN A   4      21.454   6.767  -9.767  1.00  0.00     0.102 C 
BRANCH  67  68
ATOM     68  CD  GLN A   4      21.760   5.807  -8.650  1.00  0.00     0.217 C 
ATOM     69  NE2 GLN A   4      23.108   5.434  -8.363  1.00  0.00    -0.370 N 
ATOM     70  OE1 GLN A   4      20.819   5.307  -7.977  1.00  0.00    -0.275 OA
ATOM     71  H   UNL     1      23.317   4.775  -7.581  1.00  0.00     0.159 HD
ATOM     72  H   UNL     1      23.899   5.805  -8.934  1.00  0.00     0.159 HD
ENDBRANCH  67  68
ENDBRANCH  66  67
ENDBRANCH  33  66
ENDBRANCH   3  33
TORSDOF 29
