REMARK SMILES N=C(N)NCCC[C@H](NC(=O)[C@@H]1CCCN1C(=O)[C@H](CO)NC(=O)[C@H](Cc1ccccc1)NC(=O)[C@@H](N)CO)C(=O)N[C@@H](CC(N)=O)C(=O)O
REMARK SMILES IDX 16 1 12 2 13 3 14 4 15 5 17 6 18 7 19 8 22 9 23 10 24 11
REMARK SMILES IDX 25 13 33 14 34 15 35 16 36 18 37 19 38 22 39 23 26 25 27 26
REMARK SMILES IDX 28 27 32 28 29 29 31 30 30 31 20 32 21 33 10 35 9 36 11 37
REMARK SMILES IDX 8 39 40 40 42 41 41 42 43 44 48 45 49 46 50 47 44 49 45 50
REMARK SMILES IDX 46 51 47 52 7 55 6 56 5 57 4 58 2 59 3 60 1 64
REMARK H PARENT 22 12 33 17 37 20 37 21 39 24 21 34 9 38 42 43 50 48 46 53
REMARK H PARENT 46 54 4 61 3 62 3 63 1 65
ROOT
ATOM      1  N   PRO A   4      20.643   9.867  -7.785  1.00  0.00    -0.329 N 
ATOM      2  CA  PRO A   4      21.479   8.715  -8.092  1.00  0.00     0.174 C 
ATOM      3  CB  PRO A   4      21.628   8.715  -9.614  1.00  0.00     0.037 C 
ATOM      4  CG  PRO A   4      21.290  10.134 -10.061  1.00  0.00     0.024 C 
ATOM      5  CD  PRO A   4      20.453  10.736  -8.938  1.00  0.00     0.120 C 
ENDROOT
BRANCH   1   6
ATOM      6  C   SER A   3      20.065  10.078  -6.490  1.00  0.00     0.248 C 
ATOM      7  O   SER A   3      20.181   9.186  -5.604  1.00  0.00    -0.272 OA
BRANCH   6   8
ATOM      8  CA  SER A   3      19.349  11.361  -6.166  1.00  0.00     0.197 C 
BRANCH   8   9
ATOM      9  N   SER A   3      18.101  11.044  -5.514  1.00  0.00    -0.340 N 
ATOM     10  C   PHE A   2      16.893  11.747  -5.777  1.00  0.00     0.243 C 
ATOM     11  O   PHE A   2      16.905  12.791  -6.485  1.00  0.00    -0.273 OA
ATOM     12  H   UNL     1      18.197  10.531  -4.611  1.00  0.00     0.164 HD
BRANCH  10  13
ATOM     13  CA  PHE A   2      15.657  11.313  -5.060  1.00  0.00     0.175 C 
BRANCH  13  14
ATOM     14  N   PHE A   2      14.457  11.740  -5.768  1.00  0.00    -0.343 N 
ATOM     15  C   SER A   1      13.918  13.050  -5.637  1.00  0.00     0.239 C 
ATOM     16  O   SER A   1      14.451  13.870  -4.839  1.00  0.00    -0.273 OA
ATOM     17  H   UNL     1      13.866  11.000  -6.206  1.00  0.00     0.164 HD
BRANCH  15  18
ATOM     18  CA  SER A   1      12.657  13.409  -6.384  1.00  0.00     0.167 C 
BRANCH  18  19
ATOM     19  N   SER A   1      12.469  14.862  -6.382  1.00  0.00    -0.318 NA
ATOM     20  H   UNL     1      11.582  15.086  -6.889  1.00  0.00     0.119 HD
ATOM     21  H   UNL     1      12.306  15.173  -5.396  1.00  0.00     0.119 HD
ENDBRANCH  18  19
BRANCH  18  22
ATOM     22  CB  SER A   1      12.696  12.893  -7.842  1.00  0.00     0.184 C 
BRANCH  22  23
ATOM     23  OG  SER A   1      11.442  13.036  -8.450  1.00  0.00    -0.394 OA
ATOM     24  H   UNL     1      10.856  12.332  -8.065  1.00  0.00     0.210 HD
ENDBRANCH  22  23
ENDBRANCH  18  22
ENDBRANCH  15  18
ENDBRANCH  13  14
BRANCH  13  25
ATOM     25  CB  PHE A   2      15.619   9.775  -4.889  1.00  0.00     0.070 C 
BRANCH  25  26
ATOM     26  CG  PHE A   2      14.448   9.289  -4.088  1.00  0.00    -0.045 A 
ATOM     27  CD1 PHE A   2      13.905  10.047  -3.033  1.00  0.00     0.004 A 
ATOM     28  CD2 PHE A   2      13.970   7.991  -4.311  1.00  0.00     0.004 A 
ATOM     29  CE1 PHE A   2      12.870   9.536  -2.260  1.00  0.00     0.000 A 
ATOM     30  CE2 PHE A   2      12.941   7.477  -3.521  1.00  0.00     0.000 A 
ATOM     31  CZ  PHE A   2      12.388   8.252  -2.502  1.00  0.00     0.000 A 
ENDBRANCH  25  26
ENDBRANCH  13  25
ENDBRANCH  10  13
ENDBRANCH   8   9
BRANCH   8  32
ATOM     32  CB  SER A   3      20.182  12.237  -5.231  1.00  0.00     0.191 C 
BRANCH  32  33
ATOM     33  OG  SER A   3      21.370  12.617  -5.870  1.00  0.00    -0.394 OA
ATOM     34  H   UNL     1      21.869  13.174  -5.217  1.00  0.00     0.210 HD
ENDBRANCH  32  33
ENDBRANCH   8  32
ENDBRANCH   6   8
ENDBRANCH   1   6
BRANCH   2  35
ATOM     35  C   PRO A   4      22.814   8.859  -7.409  1.00  0.00     0.243 C 
ATOM     36  N   ARG A   5      23.304   7.821  -6.547  1.00  0.00    -0.343 N 
ATOM     37  O   PRO A   4      23.493   9.908  -7.589  1.00  0.00    -0.273 OA
ATOM     38  H   UNL     1      22.754   6.935  -6.471  1.00  0.00     0.164 HD
BRANCH  36  39
ATOM     39  CA  ARG A   5      24.482   8.018  -5.697  1.00  0.00     0.171 C 
BRANCH  39  40
ATOM     40  C   ARG A   5      25.063   6.684  -5.294  1.00  0.00     0.243 C 
ATOM     41  N   ASN A   6      24.310   5.768  -4.481  1.00  0.00    -0.341 N 
ATOM     42  O   ARG A   5      26.221   6.375  -5.685  1.00  0.00    -0.273 OA
ATOM     43  H   UNL     1      23.328   6.016  -4.219  1.00  0.00     0.164 HD
BRANCH  41  44
ATOM     44  CA  ASN A   6      24.854   4.472  -4.064  1.00  0.00     0.201 C 
BRANCH  44  45
ATOM     45  C   ASN A   6      24.787   3.510  -5.218  1.00  0.00     0.326 C 
ATOM     46  O   ASN A   6      25.811   2.860  -5.559  1.00  0.00    -0.250 OA
BRANCH  45  47
ATOM     47  OXT ASN A   6      23.587   3.322  -5.899  1.00  0.00    -0.480 OA
ATOM     48  H   UNL     1      23.525   2.671  -6.672  1.00  0.00     0.296 HD
ENDBRANCH  45  47
ENDBRANCH  44  45
BRANCH  44  49
ATOM     49  CB  ASN A   6      24.069   3.931  -2.855  1.00  0.00     0.136 C 
BRANCH  49  50
ATOM     50  CG  ASN A   6      24.720   2.707  -2.276  1.00  0.00     0.220 C 
ATOM     51  ND2 ASN A   6      24.333   1.403  -2.714  1.00  0.00    -0.370 N 
ATOM     52  OD1 ASN A   6      25.642   2.832  -1.425  1.00  0.00    -0.275 OA
ATOM     53  H   UNL     1      23.585   1.282  -3.433  1.00  0.00     0.159 HD
ATOM     54  H   UNL     1      24.805   0.556  -2.326  1.00  0.00     0.159 HD
ENDBRANCH  49  50
ENDBRANCH  44  49
ENDBRANCH  41  44
ENDBRANCH  39  40
BRANCH  39  55
ATOM     55  CB  ARG A   5      24.103   8.881  -4.473  1.00  0.00     0.037 C 
BRANCH  55  56
ATOM     56  CG  ARG A   5      25.288   9.219  -3.551  1.00  0.00     0.024 C 
BRANCH  56  57
ATOM     57  CD  ARG A   5      26.332  10.114  -4.236  1.00  0.00     0.116 C 
BRANCH  57  58
ATOM     58  NE  ARG A   5      27.264  10.663  -3.251  1.00  0.00    -0.357 N 
ATOM     59  CZ  ARG A   5      26.961  11.747  -2.353  1.00  0.00     0.185 C 
ATOM     60  NH2 ARG A   5      27.946  12.168  -1.409  1.00  0.00    -0.370 N 
ATOM     61  H   UNL     1      28.231  10.268  -3.231  1.00  0.00     0.163 HD
ATOM     62  H   UNL     1      28.874  11.692  -1.361  1.00  0.00     0.159 HD
ATOM     63  H   UNL     1      27.748  12.956  -0.753  1.00  0.00     0.159 HD
BRANCH  59  64
ATOM     64  NH1 ARG A   5      25.819  12.361  -2.385  1.00  0.00    -0.270 NA
ATOM     65  H   UNL     1      25.049  12.123  -3.046  1.00  0.00     0.191 HD
ENDBRANCH  59  64
ENDBRANCH  57  58
ENDBRANCH  56  57
ENDBRANCH  55  56
ENDBRANCH  39  55
ENDBRANCH  36  39
ENDBRANCH   2  35
TORSDOF 26
