REMARK SMILES CC(C)C[C@H](NC(=O)[C@H](Cc1ccccc1)NC(=O)[C@@H](N)CO)C(=O)N[C@@H](C)C(=O)N[C@@H](CCCNC(=N)N)C(=O)N[C@@H](CCCCN)C(=O)O
REMARK SMILES IDX 29 1 30 2 31 3 27 5 28 6 26 7 24 8 25 9 5 11 6 12 7 13 8 14
REMARK SMILES IDX 9 16 17 17 18 18 19 19 20 21 21 22 22 25 23 26 10 28 11 29
REMARK SMILES IDX 12 30 16 31 13 32 15 33 14 34 4 35 2 36 1 37 3 38 32 39
REMARK SMILES IDX 40 40 42 41 41 42 43 44 49 45 50 46 51 47 44 49 45 50 46 51
REMARK SMILES IDX 47 52 48 53 33 56 34 57 35 58 36 59 37 60 39 61 38 65
REMARK H PARENT 31 4 26 10 6 15 17 20 21 23 21 24 23 27 42 43 51 48 48 54
REMARK H PARENT 48 55 36 62 39 63 39 64 38 66
ROOT
ATOM      1  C   ALA A   4       1.506  -0.139  -1.238  1.00  0.00     0.242 C 
ATOM      2  O   ALA A   4       1.944   0.975  -1.641  1.00  0.00    -0.273 OA
ATOM      3  N   ARG A   5       2.322  -0.978  -0.403  1.00  0.00    -0.343 N 
ATOM      4  H   UNL     1       1.893  -1.838   0.008  1.00  0.00     0.164 HD
ENDROOT
BRANCH   1   5
ATOM      5  CA  ALA A   4       0.131  -0.589  -1.653  1.00  0.00     0.168 C 
ATOM      6  CB  ALA A   4       0.077  -0.830  -3.162  1.00  0.00     0.041 C 
BRANCH   5   7
ATOM      7  N   ALA A   4      -0.856   0.426  -1.282  1.00  0.00    -0.343 N 
ATOM      8  C   LEU A   3      -1.892   0.193  -0.314  1.00  0.00     0.243 C 
ATOM      9  O   LEU A   3      -1.923  -0.885   0.344  1.00  0.00    -0.273 OA
ATOM     10  H   UNL     1      -0.808   1.363  -1.748  1.00  0.00     0.164 HD
BRANCH   8  11
ATOM     11  CA  LEU A   3      -2.916   1.262  -0.043  1.00  0.00     0.171 C 
BRANCH  11  12
ATOM     12  N   LEU A   3      -4.211   0.642   0.253  1.00  0.00    -0.343 N 
ATOM     13  C   PHE A   2      -5.148   0.294  -0.778  1.00  0.00     0.243 C 
ATOM     14  O   PHE A   2      -4.933   0.631  -1.975  1.00  0.00    -0.273 OA
ATOM     15  H   UNL     1      -4.388   0.300   1.225  1.00  0.00     0.164 HD
BRANCH  13  16
ATOM     16  CA  PHE A   2      -6.361  -0.528  -0.445  1.00  0.00     0.175 C 
BRANCH  16  17
ATOM     17  N   PHE A   2      -7.538   0.030  -1.120  1.00  0.00    -0.343 N 
ATOM     18  C   SER A   1      -8.500   0.854  -0.445  1.00  0.00     0.239 C 
ATOM     19  O   SER A   1      -8.275   1.259   0.728  1.00  0.00    -0.273 OA
ATOM     20  H   UNL     1      -7.650  -0.128  -2.146  1.00  0.00     0.164 HD
BRANCH  18  21
ATOM     21  CA  SER A   1      -9.766   1.273  -1.154  1.00  0.00     0.167 C 
BRANCH  21  22
ATOM     22  N   SER A   1     -10.938   1.095  -0.292  1.00  0.00    -0.318 NA
ATOM     23  H   UNL     1     -10.841   1.695   0.562  1.00  0.00     0.119 HD
ATOM     24  H   UNL     1     -10.973   0.098   0.029  1.00  0.00     0.119 HD
ENDBRANCH  21  22
BRANCH  21  25
ATOM     25  CB  SER A   1      -9.660   2.730  -1.619  1.00  0.00     0.184 C 
BRANCH  25  26
ATOM     26  OG  SER A   1     -10.817   3.087  -2.324  1.00  0.00    -0.394 OA
ATOM     27  H   UNL     1     -10.701   4.041  -2.578  1.00  0.00     0.210 HD
ENDBRANCH  25  26
ENDBRANCH  21  25
ENDBRANCH  18  21
ENDBRANCH  16  17
BRANCH  16  28
ATOM     28  CB  PHE A   2      -6.142  -1.988  -0.873  1.00  0.00     0.070 C 
BRANCH  28  29
ATOM     29  CG  PHE A   2      -7.302  -2.856  -0.458  1.00  0.00    -0.045 A 
ATOM     30  CD1 PHE A   2      -8.362  -3.098  -1.350  1.00  0.00     0.004 A 
ATOM     31  CD2 PHE A   2      -7.367  -3.377   0.846  1.00  0.00     0.004 A 
ATOM     32  CE1 PHE A   2      -9.458  -3.869  -0.948  1.00  0.00     0.000 A 
ATOM     33  CE2 PHE A   2      -8.461  -4.153   1.240  1.00  0.00     0.000 A 
ATOM     34  CZ  PHE A   2      -9.505  -4.400   0.344  1.00  0.00     0.000 A 
ENDBRANCH  28  29
ENDBRANCH  16  28
ENDBRANCH  13  16
ENDBRANCH  11  12
BRANCH  11  35
ATOM     35  CB  LEU A   3      -2.451   2.149   1.127  1.00  0.00     0.038 C 
BRANCH  35  36
ATOM     36  CG  LEU A   3      -3.438   3.291   1.469  1.00  0.00    -0.015 C 
ATOM     37  CD1 LEU A   3      -3.002   3.987   2.764  1.00  0.00     0.007 C 
ATOM     38  CD2 LEU A   3      -3.537   4.322   0.334  1.00  0.00     0.007 C 
ENDBRANCH  35  36
ENDBRANCH  11  35
ENDBRANCH   8  11
ENDBRANCH   5   7
ENDBRANCH   1   5
BRANCH   3  39
ATOM     39  CA  ARG A   5       3.679  -0.595   0.002  1.00  0.00     0.171 C 
BRANCH  39  40
ATOM     40  C   ARG A   5       4.510  -1.830   0.262  1.00  0.00     0.243 C 
ATOM     41  N   LYS A   6       5.804  -1.969  -0.346  1.00  0.00    -0.341 N 
ATOM     42  O   ARG A   5       4.083  -2.716   1.052  1.00  0.00    -0.273 OA
ATOM     43  H   UNL     1       6.112  -1.230  -1.018  1.00  0.00     0.164 HD
BRANCH  41  44
ATOM     44  CA  LYS A   6       6.644  -3.158  -0.148  1.00  0.00     0.192 C 
BRANCH  44  45
ATOM     45  C   LYS A   6       7.048  -3.313   1.295  1.00  0.00     0.326 C 
ATOM     46  O   LYS A   6       7.286  -2.299   2.005  1.00  0.00    -0.250 OA
BRANCH  45  47
ATOM     47  OXT LYS A   6       7.203  -4.587   1.832  1.00  0.00    -0.480 OA
ATOM     48  H   UNL     1       7.490  -4.713   2.796  1.00  0.00     0.296 HD
ENDBRANCH  45  47
ENDBRANCH  44  45
BRANCH  44  49
ATOM     49  CB  LYS A   6       7.879  -3.137  -1.076  1.00  0.00     0.037 C 
BRANCH  49  50
ATOM     50  CG  LYS A   6       8.894  -2.027  -0.740  1.00  0.00     0.004 C 
BRANCH  50  51
ATOM     51  CD  LYS A   6      10.016  -1.974  -1.783  1.00  0.00     0.015 C 
BRANCH  51  52
ATOM     52  CE  LYS A   6      11.037  -0.887  -1.439  1.00  0.00     0.077 C 
BRANCH  52  53
ATOM     53  NZ  LYS A   6      12.105  -0.868  -2.434  1.00  0.00    -0.330 NA
ATOM     54  H   UNL     1      11.709  -0.498  -3.329  1.00  0.00     0.118 HD
ATOM     55  H   UNL     1      12.820  -0.175  -2.116  1.00  0.00     0.118 HD
ENDBRANCH  52  53
ENDBRANCH  51  52
ENDBRANCH  50  51
ENDBRANCH  49  50
ENDBRANCH  44  49
ENDBRANCH  41  44
ENDBRANCH  39  40
BRANCH  39  56
ATOM     56  CB  ARG A   5       3.609   0.305   1.253  1.00  0.00     0.037 C 
BRANCH  56  57
ATOM     57  CG  ARG A   5       4.977   0.814   1.745  1.00  0.00     0.024 C 
BRANCH  57  58
ATOM     58  CD  ARG A   5       5.632   1.803   0.773  1.00  0.00     0.116 C 
BRANCH  58  59
ATOM     59  NE  ARG A   5       6.887   2.304   1.333  1.00  0.00    -0.357 N 
ATOM     60  CZ  ARG A   5       6.944   3.306   2.359  1.00  0.00     0.185 C 
ATOM     61  NH2 ARG A   5       8.212   3.726   2.868  1.00  0.00    -0.370 N 
ATOM     62  H   UNL     1       7.783   1.953   0.926  1.00  0.00     0.163 HD
ATOM     63  H   UNL     1       8.280   4.467   3.603  1.00  0.00     0.159 HD
ATOM     64  H   UNL     1       9.094   3.286   2.517  1.00  0.00     0.159 HD
BRANCH  60  65
ATOM     65  NH1 ARG A   5       5.854   3.834   2.821  1.00  0.00    -0.270 NA
ATOM     66  H   UNL     1       5.874   4.564   3.566  1.00  0.00     0.191 HD
ENDBRANCH  60  65
ENDBRANCH  58  59
ENDBRANCH  57  58
ENDBRANCH  56  57
ENDBRANCH  39  56
ENDBRANCH   3  39
TORSDOF 29
