REMARK SMILES CC(C)C[C@H](NC(=O)[C@H](CCC(N)=O)NC(=O)[C@@H](NC(=O)[C@@H](N)CO)C(C)C)C(=O)N[C@@H](CCCNC(=N)N)C(=O)N[C@@H](CC(N)=O)C(=O)O
REMARK SMILES IDX 7 1 8 2 6 3 9 5 15 6 16 7 17 8 18 10 19 11 20 12 21 13 22 15
REMARK SMILES IDX 23 16 24 19 25 20 26 22 27 23 28 24 10 25 11 26 12 27 13 28
REMARK SMILES IDX 14 29 5 32 29 33 31 34 30 35 32 37 40 38 42 39 41 40 43 42
REMARK SMILES IDX 48 43 49 44 50 45 44 47 45 48 46 49 47 50 33 53 34 54 35 55
REMARK SMILES IDX 36 56 37 57 39 58 38 62 4 64 2 65 1 66 3 67
REMARK H PARENT 6 4 15 9 19 14 23 17 23 18 25 21 13 30 13 31 31 36 42 41 50 46
REMARK H PARENT 46 51 46 52 36 59 39 60 39 61 38 63
ROOT
ATOM      1  C   GLN A   3      20.024  10.089  -6.465  1.00  0.00     0.243 C 
ATOM      2  O   GLN A   3      20.139   9.168  -5.609  1.00  0.00    -0.273 OA
ATOM      3  N   LEU A   4      20.558   9.926  -7.770  1.00  0.00    -0.343 N 
ATOM      4  H   UNL     1      20.401  10.669  -8.489  1.00  0.00     0.164 HD
ENDROOT
BRANCH   1   5
ATOM      5  CA  GLN A   3      19.336  11.374  -6.128  1.00  0.00     0.171 C 
BRANCH   5   6
ATOM      6  N   GLN A   3      18.095  11.097  -5.451  1.00  0.00    -0.342 N 
ATOM      7  C   VAL A   2      16.874  11.730  -5.758  1.00  0.00     0.243 C 
ATOM      8  O   VAL A   2      16.868  12.769  -6.477  1.00  0.00    -0.273 OA
ATOM      9  H   UNL     1      18.187  10.750  -4.476  1.00  0.00     0.164 HD
BRANCH   7  10
ATOM     10  CA  VAL A   2      15.635  11.240  -5.056  1.00  0.00     0.173 C 
BRANCH  10  11
ATOM     11  N   VAL A   2      14.452  11.727  -5.766  1.00  0.00    -0.343 N 
ATOM     12  C   SER A   1      13.922  13.042  -5.631  1.00  0.00     0.239 C 
ATOM     13  O   SER A   1      14.460  13.855  -4.831  1.00  0.00    -0.273 OA
ATOM     14  H   UNL     1      13.880  11.022  -6.276  1.00  0.00     0.164 HD
BRANCH  12  15
ATOM     15  CA  SER A   1      12.662  13.411  -6.383  1.00  0.00     0.167 C 
BRANCH  15  16
ATOM     16  N   SER A   1      12.475  14.863  -6.373  1.00  0.00    -0.318 NA
ATOM     17  H   UNL     1      12.349  15.175  -5.382  1.00  0.00     0.119 HD
ATOM     18  H   UNL     1      11.568  15.089  -6.842  1.00  0.00     0.119 HD
ENDBRANCH  15  16
BRANCH  15  19
ATOM     19  CB  SER A   1      12.698  12.904  -7.846  1.00  0.00     0.184 C 
BRANCH  19  20
ATOM     20  OG  SER A   1      11.438  13.043  -8.444  1.00  0.00    -0.394 OA
ATOM     21  H   UNL     1      11.444  13.902  -8.942  1.00  0.00     0.210 HD
ENDBRANCH  19  20
ENDBRANCH  15  19
ENDBRANCH  12  15
ENDBRANCH  10  11
BRANCH  10  22
ATOM     22  CB  VAL A   2      15.522   9.667  -4.963  1.00  0.00     0.015 C 
ATOM     23  CG1 VAL A   2      14.342   9.297  -4.062  1.00  0.00     0.010 C 
ATOM     24  CG2 VAL A   2      16.707   8.814  -4.462  1.00  0.00     0.010 C 
ENDBRANCH  10  22
ENDBRANCH   7  10
ENDBRANCH   5   6
BRANCH   5  25
ATOM     25  CB  GLN A   3      20.210  12.262  -5.238  1.00  0.00     0.045 C 
BRANCH  25  26
ATOM     26  CG  GLN A   3      20.445  11.709  -3.810  1.00  0.00     0.102 C 
BRANCH  26  27
ATOM     27  CD  GLN A   3      21.792  12.110  -3.310  1.00  0.00     0.217 C 
ATOM     28  NE2 GLN A   3      21.929  12.922  -2.143  1.00  0.00    -0.370 N 
ATOM     29  OE1 GLN A   3      22.819  11.728  -3.925  1.00  0.00    -0.275 OA
ATOM     30  H   UNL     1      22.878  13.194  -1.801  1.00  0.00     0.159 HD
ATOM     31  H   UNL     1      21.090  13.255  -1.619  1.00  0.00     0.159 HD
ENDBRANCH  26  27
ENDBRANCH  25  26
ENDBRANCH   5  25
ENDBRANCH   1   5
BRANCH   3  32
ATOM     32  CA  LEU A   4      21.345   8.763  -8.137  1.00  0.00     0.171 C 
BRANCH  32  33
ATOM     33  C   LEU A   4      22.711   9.218  -8.519  1.00  0.00     0.243 C 
ATOM     34  N   ARG A   5      23.821   8.721  -7.784  1.00  0.00    -0.343 N 
ATOM     35  O   LEU A   4      22.876  10.033  -9.467  1.00  0.00    -0.273 OA
ATOM     36  H   UNL     1      23.666   8.032  -7.014  1.00  0.00     0.164 HD
BRANCH  34  37
ATOM     37  CA  ARG A   5      25.185   9.122  -8.073  1.00  0.00     0.171 C 
BRANCH  37  38
ATOM     38  C   ARG A   5      25.899   7.967  -8.686  1.00  0.00     0.243 C 
ATOM     39  N   ASN A   6      25.913   7.864 -10.103  1.00  0.00    -0.341 N 
ATOM     40  O   ARG A   5      26.447   7.086  -7.970  1.00  0.00    -0.273 OA
ATOM     41  H   UNL     1      25.489   8.647 -10.651  1.00  0.00     0.164 HD
BRANCH  39  42
ATOM     42  CA  ASN A   6      26.542   6.751 -10.804  1.00  0.00     0.201 C 
BRANCH  42  43
ATOM     43  C   ASN A   6      27.992   6.642 -10.416  1.00  0.00     0.326 C 
ATOM     44  O   ASN A   6      28.794   7.579 -10.677  1.00  0.00    -0.250 OA
BRANCH  43  45
ATOM     45  OXT ASN A   6      28.451   5.499  -9.768  1.00  0.00    -0.480 OA
ATOM     46  H   UNL     1      29.424   5.409  -9.499  1.00  0.00     0.296 HD
ENDBRANCH  43  45
ENDBRANCH  42  43
BRANCH  42  47
ATOM     47  CB  ASN A   6      26.424   6.946 -12.323  1.00  0.00     0.136 C 
BRANCH  47  48
ATOM     48  CG  ASN A   6      25.010   7.180 -12.773  1.00  0.00     0.220 C 
ATOM     49  ND2 ASN A   6      24.753   8.090 -13.833  1.00  0.00    -0.370 N 
ATOM     50  OD1 ASN A   6      24.053   6.558 -12.243  1.00  0.00    -0.275 OA
ATOM     51  H   UNL     1      25.533   8.600 -14.306  1.00  0.00     0.159 HD
ATOM     52  H   UNL     1      23.774   8.258 -14.156  1.00  0.00     0.159 HD
ENDBRANCH  47  48
ENDBRANCH  42  47
ENDBRANCH  39  42
ENDBRANCH  37  38
BRANCH  37  53
ATOM     53  CB  ARG A   5      25.865   9.604  -6.797  1.00  0.00     0.037 C 
BRANCH  53  54
ATOM     54  CG  ARG A   5      25.168  10.856  -6.267  1.00  0.00     0.024 C 
BRANCH  54  55
ATOM     55  CD  ARG A   5      25.850  11.389  -5.014  1.00  0.00     0.116 C 
BRANCH  55  56
ATOM     56  NE  ARG A   5      25.410  10.674  -3.818  1.00  0.00    -0.357 N 
ATOM     57  CZ  ARG A   5      25.482  11.277  -2.525  1.00  0.00     0.185 C 
ATOM     58  NH2 ARG A   5      26.106  12.548  -2.351  1.00  0.00    -0.370 N 
ATOM     59  H   UNL     1      24.955   9.737  -3.907  1.00  0.00     0.163 HD
ATOM     60  H   UNL     1      26.058  13.035  -1.428  1.00  0.00     0.159 HD
ATOM     61  H   UNL     1      26.705  12.981  -3.087  1.00  0.00     0.159 HD
BRANCH  57  62
ATOM     62  NH1 ARG A   5      24.958  10.670  -1.509  1.00  0.00    -0.270 NA
ATOM     63  H   UNL     1      24.982  11.082  -0.549  1.00  0.00     0.191 HD
ENDBRANCH  57  62
ENDBRANCH  55  56
ENDBRANCH  54  55
ENDBRANCH  53  54
ENDBRANCH  37  53
ENDBRANCH  34  37
ENDBRANCH  32  33
BRANCH  32  64
ATOM     64  CB  LEU A   4      20.653   8.001  -9.270  1.00  0.00     0.038 C 
BRANCH  64  65
ATOM     65  CG  LEU A   4      21.448   6.773  -9.767  1.00  0.00    -0.015 C 
ATOM     66  CD1 LEU A   4      21.762   5.780  -8.638  1.00  0.00     0.007 C 
ATOM     67  CD2 LEU A   4      20.662   6.069 -10.876  1.00  0.00     0.007 C 
ENDBRANCH  64  65
ENDBRANCH  32  64
ENDBRANCH   3  32
TORSDOF 28
