REMARK SMILES CC(C)C[C@H](NC(=O)[C@H](C)NC(=O)[C@@H](N)CO)C(=O)N[C@@H](C)C(=O)N[C@@H](CCCNC(=N)N)C(=O)N[C@@H](CC(N)=O)C(=O)O
REMARK SMILES IDX 18 1 19 2 20 3 5 5 6 6 7 7 8 8 9 10 10 11 11 12 12 13 13 14
REMARK SMILES IDX 14 16 15 17 16 20 17 21 4 23 2 24 1 25 3 26 21 27 22 28
REMARK SMILES IDX 23 29 25 30 24 31 26 33 34 34 36 35 35 36 37 38 42 39 43 40
REMARK SMILES IDX 44 41 38 43 39 44 40 45 41 46 27 49 28 50 29 51 30 52 31 53
REMARK SMILES IDX 33 54 32 58
REMARK H PARENT 20 4 6 9 11 15 15 18 15 19 17 22 25 32 36 37 44 42 40 47 40 48
REMARK H PARENT 30 55 33 56 33 57 32 59
ROOT
ATOM      1  C   LEU A   3      20.045  10.074  -6.472  1.00  0.00     0.243 C 
ATOM      2  O   LEU A   3      20.168   9.150  -5.621  1.00  0.00    -0.273 OA
ATOM      3  N   ALA A   4      20.563   9.913  -7.781  1.00  0.00    -0.343 N 
ATOM      4  H   UNL     1      20.401  10.658  -8.497  1.00  0.00     0.164 HD
ENDROOT
BRANCH   1   5
ATOM      5  CA  LEU A   3      19.321  11.336  -6.134  1.00  0.00     0.171 C 
BRANCH   5   6
ATOM      6  N   LEU A   3      18.058  10.996  -5.523  1.00  0.00    -0.343 N 
ATOM      7  C   ALA A   2      16.869  11.742  -5.739  1.00  0.00     0.242 C 
ATOM      8  O   ALA A   2      16.896  12.792  -6.440  1.00  0.00    -0.273 OA
ATOM      9  H   UNL     1      18.081  10.277  -4.768  1.00  0.00     0.164 HD
BRANCH   7  10
ATOM     10  CA  ALA A   2      15.614  11.295  -5.040  1.00  0.00     0.168 C 
ATOM     11  CB  ALA A   2      15.559   9.764  -4.898  1.00  0.00     0.041 C 
BRANCH  10  12
ATOM     12  N   ALA A   2      14.436  11.734  -5.769  1.00  0.00    -0.343 N 
ATOM     13  C   SER A   1      13.909  13.049  -5.639  1.00  0.00     0.239 C 
ATOM     14  O   SER A   1      14.449  13.866  -4.842  1.00  0.00    -0.273 OA
ATOM     15  H   UNL     1      13.846  11.002  -6.222  1.00  0.00     0.164 HD
BRANCH  13  16
ATOM     16  CA  SER A   1      12.652  13.413  -6.386  1.00  0.00     0.167 C 
BRANCH  16  17
ATOM     17  N   SER A   1      12.468  14.866  -6.382  1.00  0.00    -0.318 NA
ATOM     18  H   UNL     1      11.583  15.093  -6.892  1.00  0.00     0.119 HD
ATOM     19  H   UNL     1      12.303  15.175  -5.396  1.00  0.00     0.119 HD
ENDBRANCH  16  17
BRANCH  16  20
ATOM     20  CB  SER A   1      12.694  12.901  -7.847  1.00  0.00     0.184 C 
BRANCH  20  21
ATOM     21  OG  SER A   1      11.438  13.038  -8.451  1.00  0.00    -0.394 OA
ATOM     22  H   UNL     1      10.858  12.328  -8.070  1.00  0.00     0.210 HD
ENDBRANCH  20  21
ENDBRANCH  16  20
ENDBRANCH  13  16
ENDBRANCH  10  12
ENDBRANCH   7  10
ENDBRANCH   5   6
BRANCH   5  23
ATOM     23  CB  LEU A   3      20.148  12.243  -5.213  1.00  0.00     0.038 C 
BRANCH  23  24
ATOM     24  CG  LEU A   3      20.411  11.673  -3.790  1.00  0.00    -0.015 C 
ATOM     25  CD1 LEU A   3      21.812  12.070  -3.319  1.00  0.00     0.007 C 
ATOM     26  CD2 LEU A   3      19.361  12.156  -2.781  1.00  0.00     0.007 C 
ENDBRANCH  23  24
ENDBRANCH   5  23
ENDBRANCH   1   5
BRANCH   3  27
ATOM     27  CA  ALA A   4      21.342   8.748  -8.157  1.00  0.00     0.168 C 
ATOM     28  CB  ALA A   4      20.664   8.008  -9.300  1.00  0.00     0.041 C 
BRANCH  27  29
ATOM     29  C   ALA A   4      22.710   9.199  -8.533  1.00  0.00     0.242 C 
ATOM     30  N   ARG A   5      23.817   8.707  -7.791  1.00  0.00    -0.343 N 
ATOM     31  O   ALA A   4      22.877  10.027  -9.470  1.00  0.00    -0.273 OA
ATOM     32  H   UNL     1      23.661   7.985  -7.050  1.00  0.00     0.164 HD
BRANCH  30  33
ATOM     33  CA  ARG A   5      25.181   9.117  -8.072  1.00  0.00     0.171 C 
BRANCH  33  34
ATOM     34  C   ARG A   5      25.901   7.968  -8.686  1.00  0.00     0.243 C 
ATOM     35  N   ASN A   6      25.916   7.866 -10.103  1.00  0.00    -0.341 N 
ATOM     36  O   ARG A   5      26.450   7.087  -7.970  1.00  0.00    -0.273 OA
ATOM     37  H   UNL     1      25.496   8.651 -10.651  1.00  0.00     0.164 HD
BRANCH  35  38
ATOM     38  CA  ASN A   6      26.543   6.751 -10.804  1.00  0.00     0.201 C 
BRANCH  38  39
ATOM     39  C   ASN A   6      27.994   6.642 -10.417  1.00  0.00     0.326 C 
ATOM     40  O   ASN A   6      28.795   7.579 -10.677  1.00  0.00    -0.250 OA
BRANCH  39  41
ATOM     41  OXT ASN A   6      28.453   5.497  -9.772  1.00  0.00    -0.480 OA
ATOM     42  H   UNL     1      29.426   5.407  -9.504  1.00  0.00     0.296 HD
ENDBRANCH  39  41
ENDBRANCH  38  39
BRANCH  38  43
ATOM     43  CB  ASN A   6      26.424   6.946 -12.323  1.00  0.00     0.136 C 
BRANCH  43  44
ATOM     44  CG  ASN A   6      25.009   7.181 -12.772  1.00  0.00     0.220 C 
ATOM     45  ND2 ASN A   6      24.753   8.089 -13.834  1.00  0.00    -0.370 N 
ATOM     46  OD1 ASN A   6      24.051   6.563 -12.238  1.00  0.00    -0.275 OA
ATOM     47  H   UNL     1      25.533   8.595 -14.309  1.00  0.00     0.159 HD
ATOM     48  H   UNL     1      23.775   8.258 -14.156  1.00  0.00     0.159 HD
ENDBRANCH  43  44
ENDBRANCH  38  43
ENDBRANCH  35  38
ENDBRANCH  33  34
BRANCH  33  49
ATOM     49  CB  ARG A   5      25.855   9.600  -6.792  1.00  0.00     0.037 C 
BRANCH  49  50
ATOM     50  CG  ARG A   5      25.162  10.857  -6.270  1.00  0.00     0.024 C 
BRANCH  50  51
ATOM     51  CD  ARG A   5      25.838  11.390  -5.014  1.00  0.00     0.116 C 
BRANCH  51  52
ATOM     52  NE  ARG A   5      25.377  10.686  -3.820  1.00  0.00    -0.357 N 
ATOM     53  CZ  ARG A   5      25.469  11.281  -2.527  1.00  0.00     0.185 C 
ATOM     54  NH2 ARG A   5      26.107  12.546  -2.352  1.00  0.00    -0.370 N 
ATOM     55  H   UNL     1      24.894   9.763  -3.911  1.00  0.00     0.163 HD
ATOM     56  H   UNL     1      26.080  13.024  -1.424  1.00  0.00     0.159 HD
ATOM     57  H   UNL     1      26.696  12.982  -3.094  1.00  0.00     0.159 HD
BRANCH  53  58
ATOM     58  NH1 ARG A   5      24.955  10.672  -1.507  1.00  0.00    -0.270 NA
ATOM     59  H   UNL     1      24.996  11.077  -0.545  1.00  0.00     0.191 HD
ENDBRANCH  53  58
ENDBRANCH  51  52
ENDBRANCH  50  51
ENDBRANCH  49  50
ENDBRANCH  33  49
ENDBRANCH  30  33
ENDBRANCH  27  29
ENDBRANCH   3  27
TORSDOF 24
