REMARK SMILES CC(C)C[C@H](NC(=O)[C@H](Cc1ccccc1)NC(=O)[C@H](C)N)C(=O)NCC(=O)N[C@@H](CCCNC(=N)N)C(=O)N[C@@H](CC(N)=O)C(=O)O
REMARK SMILES IDX 26 1 25 2 23 3 24 4 5 6 6 7 7 8 8 9 9 11 17 12 18 13 19 14
REMARK SMILES IDX 20 16 21 17 22 18 10 21 11 22 12 23 16 24 13 25 15 26 14 27
REMARK SMILES IDX 4 28 2 29 1 30 3 31 27 32 29 33 28 34 30 36 38 37 40 38
REMARK SMILES IDX 39 39 41 41 46 42 47 43 48 44 42 46 43 47 44 48 45 49 31 52
REMARK SMILES IDX 32 53 33 54 34 55 35 56 37 57 36 61
REMARK H PARENT 25 5 6 10 17 15 22 19 22 20 29 35 40 40 48 45 44 50 44 51
REMARK H PARENT 34 58 37 59 37 60 36 62
ROOT
ATOM      1  CA  GLY A   4      21.333   8.757  -8.203  1.00  0.00     0.216 C 
ENDROOT
BRANCH   1   2
ATOM      2  N   GLY A   4      20.561   9.913  -7.798  1.00  0.00    -0.345 N 
ATOM      3  C   LEU A   3      20.060  10.078  -6.483  1.00  0.00     0.243 C 
ATOM      4  O   LEU A   3      20.180   9.152  -5.634  1.00  0.00    -0.273 OA
ATOM      5  H   UNL     1      20.396  10.662  -8.510  1.00  0.00     0.164 HD
BRANCH   3   6
ATOM      6  CA  LEU A   3      19.344  11.348  -6.147  1.00  0.00     0.171 C 
BRANCH   6   7
ATOM      7  N   LEU A   3      18.085  11.015  -5.539  1.00  0.00    -0.343 N 
ATOM      8  C   PHE A   2      16.891  11.744  -5.776  1.00  0.00     0.243 C 
ATOM      9  O   PHE A   2      16.913  12.796  -6.473  1.00  0.00    -0.273 OA
ATOM     10  H   UNL     1      18.156  10.377  -4.722  1.00  0.00     0.164 HD
BRANCH   8  11
ATOM     11  CA  PHE A   2      15.650  11.316  -5.066  1.00  0.00     0.175 C 
BRANCH  11  12
ATOM     12  N   PHE A   2      14.467  11.750  -5.795  1.00  0.00    -0.343 N 
ATOM     13  C   ALA A   1      13.907  13.049  -5.629  1.00  0.00     0.237 C 
ATOM     14  O   ALA A   1      14.432  13.860  -4.818  1.00  0.00    -0.273 OA
ATOM     15  H   UNL     1      14.017  11.070  -6.446  1.00  0.00     0.164 HD
BRANCH  13  16
ATOM     16  CA  ALA A   1      12.657  13.423  -6.382  1.00  0.00     0.138 C 
ATOM     17  CB  ALA A   1      12.677  12.885  -7.825  1.00  0.00     0.035 C 
BRANCH  16  18
ATOM     18  N   ALA A   1      12.490  14.876  -6.383  1.00  0.00    -0.320 NA
ATOM     19  H   UNL     1      11.553  15.108  -6.784  1.00  0.00     0.119 HD
ATOM     20  H   UNL     1      13.214  15.308  -7.003  1.00  0.00     0.119 HD
ENDBRANCH  16  18
ENDBRANCH  13  16
ENDBRANCH  11  12
BRANCH  11  21
ATOM     21  CB  PHE A   2      15.601   9.777  -4.890  1.00  0.00     0.070 C 
BRANCH  21  22
ATOM     22  CG  PHE A   2      14.429   9.296  -4.098  1.00  0.00    -0.045 A 
ATOM     23  CD1 PHE A   2      13.896  10.051  -3.036  1.00  0.00     0.004 A 
ATOM     24  CD2 PHE A   2      13.961   7.993  -4.312  1.00  0.00     0.004 A 
ATOM     25  CE1 PHE A   2      12.867   9.537  -2.259  1.00  0.00     0.000 A 
ATOM     26  CE2 PHE A   2      12.938   7.477  -3.519  1.00  0.00     0.000 A 
ATOM     27  CZ  PHE A   2      12.386   8.252  -2.499  1.00  0.00     0.000 A 
ENDBRANCH  21  22
ENDBRANCH  11  21
ENDBRANCH   8  11
ENDBRANCH   6   7
BRANCH   6  28
ATOM     28  CB  LEU A   3      20.166  12.249  -5.216  1.00  0.00     0.038 C 
BRANCH  28  29
ATOM     29  CG  LEU A   3      20.417  11.677  -3.791  1.00  0.00    -0.015 C 
ATOM     30  CD1 LEU A   3      21.819  12.065  -3.316  1.00  0.00     0.007 C 
ATOM     31  CD2 LEU A   3      19.369  12.167  -2.782  1.00  0.00     0.007 C 
ENDBRANCH  28  29
ENDBRANCH   6  28
ENDBRANCH   3   6
ENDBRANCH   1   2
BRANCH   1  32
ATOM     32  C   GLY A   4      22.707   9.205  -8.540  1.00  0.00     0.240 C 
ATOM     33  N   ARG A   5      23.807   8.709  -7.788  1.00  0.00    -0.343 N 
ATOM     34  O   GLY A   4      22.885  10.031  -9.475  1.00  0.00    -0.273 OA
ATOM     35  H   UNL     1      23.640   7.993  -7.045  1.00  0.00     0.164 HD
BRANCH  33  36
ATOM     36  CA  ARG A   5      25.175   9.114  -8.068  1.00  0.00     0.171 C 
BRANCH  36  37
ATOM     37  C   ARG A   5      25.896   7.965  -8.684  1.00  0.00     0.243 C 
ATOM     38  N   ASN A   6      25.915   7.866 -10.101  1.00  0.00    -0.341 N 
ATOM     39  O   ARG A   5      26.447   7.085  -7.969  1.00  0.00    -0.273 OA
ATOM     40  H   UNL     1      25.495   8.652 -10.649  1.00  0.00     0.164 HD
BRANCH  38  41
ATOM     41  CA  ASN A   6      26.543   6.751 -10.803  1.00  0.00     0.201 C 
BRANCH  41  42
ATOM     42  C   ASN A   6      27.993   6.642 -10.416  1.00  0.00     0.326 C 
ATOM     43  O   ASN A   6      28.795   7.579 -10.677  1.00  0.00    -0.250 OA
BRANCH  42  44
ATOM     44  OXT ASN A   6      28.452   5.499  -9.769  1.00  0.00    -0.480 OA
ATOM     45  H   UNL     1      29.425   5.409  -9.501  1.00  0.00     0.296 HD
ENDBRANCH  42  44
ENDBRANCH  41  42
BRANCH  41  46
ATOM     46  CB  ASN A   6      26.424   6.947 -12.323  1.00  0.00     0.136 C 
BRANCH  46  47
ATOM     47  CG  ASN A   6      25.010   7.182 -12.772  1.00  0.00     0.220 C 
ATOM     48  ND2 ASN A   6      24.754   8.089 -13.834  1.00  0.00    -0.370 N 
ATOM     49  OD1 ASN A   6      24.051   6.563 -12.238  1.00  0.00    -0.275 OA
ATOM     50  H   UNL     1      25.534   8.596 -14.309  1.00  0.00     0.159 HD
ATOM     51  H   UNL     1      23.775   8.257 -14.157  1.00  0.00     0.159 HD
ENDBRANCH  46  47
ENDBRANCH  41  46
ENDBRANCH  38  41
ENDBRANCH  36  37
BRANCH  36  52
ATOM     52  CB  ARG A   5      25.851   9.598  -6.790  1.00  0.00     0.037 C 
BRANCH  52  53
ATOM     53  CG  ARG A   5      25.163  10.859  -6.271  1.00  0.00     0.024 C 
BRANCH  53  54
ATOM     54  CD  ARG A   5      25.838  11.390  -5.015  1.00  0.00     0.116 C 
BRANCH  54  55
ATOM     55  NE  ARG A   5      25.377  10.684  -3.823  1.00  0.00    -0.357 N 
ATOM     56  CZ  ARG A   5      25.468  11.279  -2.527  1.00  0.00     0.185 C 
ATOM     57  NH2 ARG A   5      26.105  12.541  -2.350  1.00  0.00    -0.370 N 
ATOM     58  H   UNL     1      24.897   9.760  -3.921  1.00  0.00     0.163 HD
ATOM     59  H   UNL     1      26.692  12.982  -3.091  1.00  0.00     0.159 HD
ATOM     60  H   UNL     1      26.081  13.008  -1.416  1.00  0.00     0.159 HD
BRANCH  56  61
ATOM     61  NH1 ARG A   5      24.957  10.680  -1.500  1.00  0.00    -0.270 NA
ATOM     62  H   UNL     1      24.474   9.757  -1.584  1.00  0.00     0.191 HD
ENDBRANCH  56  61
ENDBRANCH  54  55
ENDBRANCH  53  54
ENDBRANCH  52  53
ENDBRANCH  36  52
ENDBRANCH  33  36
ENDBRANCH   1  32
TORSDOF 24
