REMARK SMILES C[C@H](NC(=O)[C@H](CCCCN)NC(=O)[C@H](Cc1ccccc1)NC(=O)[C@@H](N)CO)C(=O)N[C@@H](CCCNC(=N)N)C(=O)N[C@@H](CC(N)=O)C(=O)O
REMARK SMILES IDX 4 1 5 2 3 3 6 5 12 6 13 7 14 8 15 10 23 11 24 12 25 13 26 15
REMARK SMILES IDX 27 16 28 19 29 20 16 22 17 23 18 24 22 25 19 26 21 27 20 28
REMARK SMILES IDX 7 29 8 30 9 31 10 32 11 33 2 36 1 37 30 38 32 39 31 40 33 42
REMARK SMILES IDX 41 43 43 44 42 45 44 47 49 48 50 49 51 50 45 52 46 53 47 54
REMARK SMILES IDX 48 55 34 58 35 59 36 60 37 61 38 62 40 63 39 67
REMARK H PARENT 3 4 12 9 23 14 27 17 27 18 29 21 11 34 11 35 32 41 43 46 51 51
REMARK H PARENT 47 56 47 57 37 64 40 65 40 66 39 68
ROOT
ATOM      1  C   LYS A   3      20.040  10.077  -6.473  1.00  0.00     0.243 C 
ATOM      2  O   LYS A   3      20.156   9.158  -5.616  1.00  0.00    -0.273 OA
ATOM      3  N   ALA A   4      20.560   9.910  -7.781  1.00  0.00    -0.343 N 
ATOM      4  H   UNL     1      20.401  10.654  -8.499  1.00  0.00     0.164 HD
ENDROOT
BRANCH   1   5
ATOM      5  CA  LYS A   3      19.338  11.353  -6.142  1.00  0.00     0.171 C 
BRANCH   5   6
ATOM      6  N   LYS A   3      18.087  11.047  -5.498  1.00  0.00    -0.343 N 
ATOM      7  C   PHE A   2      16.886  11.749  -5.772  1.00  0.00     0.243 C 
ATOM      8  O   PHE A   2      16.903  12.791  -6.483  1.00  0.00    -0.273 OA
ATOM      9  H   UNL     1      18.164  10.511  -4.608  1.00  0.00     0.164 HD
BRANCH   7  10
ATOM     10  CA  PHE A   2      15.650  11.314  -5.059  1.00  0.00     0.175 C 
BRANCH  10  11
ATOM     11  N   PHE A   2      14.454  11.741  -5.769  1.00  0.00    -0.343 N 
ATOM     12  C   SER A   1      13.915  13.051  -5.637  1.00  0.00     0.239 C 
ATOM     13  O   SER A   1      14.443  13.871  -4.836  1.00  0.00    -0.273 OA
ATOM     14  H   UNL     1      13.865  11.002  -6.210  1.00  0.00     0.164 HD
BRANCH  12  15
ATOM     15  CA  SER A   1      12.661  13.411  -6.389  1.00  0.00     0.167 C 
BRANCH  15  16
ATOM     16  N   SER A   1      12.471  14.863  -6.376  1.00  0.00    -0.318 NA
ATOM     17  H   UNL     1      11.539  15.087  -6.794  1.00  0.00     0.119 HD
ATOM     18  H   UNL     1      13.202  15.318  -6.972  1.00  0.00     0.119 HD
ENDBRANCH  15  16
BRANCH  15  19
ATOM     19  CB  SER A   1      12.687  12.879  -7.845  1.00  0.00     0.184 C 
BRANCH  19  20
ATOM     20  OG  SER A   1      11.436  13.048  -8.451  1.00  0.00    -0.394 OA
ATOM     21  H   UNL     1      10.832  12.368  -8.054  1.00  0.00     0.210 HD
ENDBRANCH  19  20
ENDBRANCH  15  19
ENDBRANCH  12  15
ENDBRANCH  10  11
BRANCH  10  22
ATOM     22  CB  PHE A   2      15.612   9.774  -4.891  1.00  0.00     0.070 C 
BRANCH  22  23
ATOM     23  CG  PHE A   2      14.444   9.289  -4.090  1.00  0.00    -0.045 A 
ATOM     24  CD1 PHE A   2      13.903  10.047  -3.033  1.00  0.00     0.004 A 
ATOM     25  CD2 PHE A   2      13.968   7.990  -4.310  1.00  0.00     0.004 A 
ATOM     26  CE1 PHE A   2      12.869   9.535  -2.260  1.00  0.00     0.000 A 
ATOM     27  CE2 PHE A   2      12.939   7.477  -3.521  1.00  0.00     0.000 A 
ATOM     28  CZ  PHE A   2      12.386   8.252  -2.502  1.00  0.00     0.000 A 
ENDBRANCH  22  23
ENDBRANCH  10  22
ENDBRANCH   7  10
ENDBRANCH   5   6
BRANCH   5  29
ATOM     29  CB  LYS A   3      20.188  12.252  -5.240  1.00  0.00     0.035 C 
BRANCH  29  30
ATOM     30  CG  LYS A   3      20.428  11.707  -3.812  1.00  0.00     0.004 C 
BRANCH  30  31
ATOM     31  CD  LYS A   3      21.826  12.066  -3.298  1.00  0.00     0.015 C 
BRANCH  31  32
ATOM     32  CE  LYS A   3      22.039  13.573  -3.096  1.00  0.00     0.077 C 
BRANCH  32  33
ATOM     33  NZ  LYS A   3      21.124  14.097  -2.086  1.00  0.00    -0.330 NA
ATOM     34  H   UNL     1      21.406  13.709  -1.156  1.00  0.00     0.118 HD
ATOM     35  H   UNL     1      21.269  15.132  -2.032  1.00  0.00     0.118 HD
ENDBRANCH  32  33
ENDBRANCH  31  32
ENDBRANCH  30  31
ENDBRANCH  29  30
ENDBRANCH   5  29
ENDBRANCH   1   5
BRANCH   3  36
ATOM     36  CA  ALA A   4      21.341   8.746  -8.154  1.00  0.00     0.168 C 
ATOM     37  CB  ALA A   4      20.664   8.005  -9.297  1.00  0.00     0.041 C 
BRANCH  36  38
ATOM     38  C   ALA A   4      22.709   9.198  -8.531  1.00  0.00     0.242 C 
ATOM     39  N   ARG A   5      23.817   8.706  -7.790  1.00  0.00    -0.343 N 
ATOM     40  O   ALA A   4      22.875  10.026  -9.468  1.00  0.00    -0.273 OA
ATOM     41  H   UNL     1      23.662   7.984  -7.049  1.00  0.00     0.164 HD
BRANCH  39  42
ATOM     42  CA  ARG A   5      25.180   9.117  -8.072  1.00  0.00     0.171 C 
BRANCH  42  43
ATOM     43  C   ARG A   5      25.901   7.968  -8.685  1.00  0.00     0.243 C 
ATOM     44  N   ASN A   6      25.916   7.866 -10.102  1.00  0.00    -0.341 N 
ATOM     45  O   ARG A   5      26.450   7.087  -7.970  1.00  0.00    -0.273 OA
ATOM     46  H   UNL     1      25.496   8.651 -10.651  1.00  0.00     0.164 HD
BRANCH  44  47
ATOM     47  CA  ASN A   6      26.543   6.751 -10.804  1.00  0.00     0.201 C 
BRANCH  47  48
ATOM     48  C   ASN A   6      27.994   6.642 -10.417  1.00  0.00     0.326 C 
ATOM     49  O   ASN A   6      28.795   7.579 -10.677  1.00  0.00    -0.250 OA
BRANCH  48  50
ATOM     50  OXT ASN A   6      28.453   5.497  -9.772  1.00  0.00    -0.480 OA
ATOM     51  H   UNL     1      29.426   5.407  -9.504  1.00  0.00     0.296 HD
ENDBRANCH  48  50
ENDBRANCH  47  48
BRANCH  47  52
ATOM     52  CB  ASN A   6      26.424   6.946 -12.323  1.00  0.00     0.136 C 
BRANCH  52  53
ATOM     53  CG  ASN A   6      25.009   7.181 -12.772  1.00  0.00     0.220 C 
ATOM     54  ND2 ASN A   6      24.753   8.089 -13.834  1.00  0.00    -0.370 N 
ATOM     55  OD1 ASN A   6      24.051   6.563 -12.238  1.00  0.00    -0.275 OA
ATOM     56  H   UNL     1      25.533   8.595 -14.309  1.00  0.00     0.159 HD
ATOM     57  H   UNL     1      23.775   8.258 -14.156  1.00  0.00     0.159 HD
ENDBRANCH  52  53
ENDBRANCH  47  52
ENDBRANCH  44  47
ENDBRANCH  42  43
BRANCH  42  58
ATOM     58  CB  ARG A   5      25.855   9.600  -6.792  1.00  0.00     0.037 C 
BRANCH  58  59
ATOM     59  CG  ARG A   5      25.161  10.858  -6.270  1.00  0.00     0.024 C 
BRANCH  59  60
ATOM     60  CD  ARG A   5      25.837  11.391  -5.014  1.00  0.00     0.116 C 
BRANCH  60  61
ATOM     61  NE  ARG A   5      25.377  10.686  -3.820  1.00  0.00    -0.357 N 
ATOM     62  CZ  ARG A   5      25.468  11.282  -2.527  1.00  0.00     0.185 C 
ATOM     63  NH2 ARG A   5      26.105  12.547  -2.352  1.00  0.00    -0.370 N 
ATOM     64  H   UNL     1      24.893   9.763  -3.911  1.00  0.00     0.163 HD
ATOM     65  H   UNL     1      26.694  12.984  -3.094  1.00  0.00     0.159 HD
ATOM     66  H   UNL     1      26.074  13.027  -1.425  1.00  0.00     0.159 HD
BRANCH  62  67
ATOM     67  NH1 ARG A   5      24.954  10.673  -1.507  1.00  0.00    -0.270 NA
ATOM     68  H   UNL     1      24.994  11.078  -0.545  1.00  0.00     0.191 HD
ENDBRANCH  62  67
ENDBRANCH  60  61
ENDBRANCH  59  60
ENDBRANCH  58  59
ENDBRANCH  42  58
ENDBRANCH  39  42
ENDBRANCH  36  38
ENDBRANCH   3  36
TORSDOF 29
