REMARK SMILES CC(C)C[C@H](NC(=O)[C@@H](NC(=O)[C@@H](N)CO)[C@@H](C)O)C(=O)NCC(=O)N[C@@H](CCCNC(=N)N)C(=O)N[C@@H](CC(N)=O)C(=O)O
REMARK SMILES IDX 20 1 21 2 22 3 5 5 6 6 7 7 8 8 9 10 10 11 11 12 12 13 13 15
REMARK SMILES IDX 14 16 15 19 16 20 17 22 18 23 19 24 4 26 2 27 1 28 3 29
REMARK SMILES IDX 23 30 24 31 26 32 25 33 27 35 35 36 37 37 36 38 38 40 43 41
REMARK SMILES IDX 44 42 45 43 39 45 40 46 41 47 42 48 28 51 29 52 30 53 31 54
REMARK SMILES IDX 32 55 34 56 33 60
REMARK H PARENT 22 4 6 9 10 14 14 17 14 18 16 21 19 25 26 34 37 39 45 44 41 49
REMARK H PARENT 41 50 31 57 34 58 34 59 33 61
ROOT
ATOM      1  C   LEU A   3      20.053  10.077  -6.481  1.00  0.00     0.243 C 
ATOM      2  O   LEU A   3      20.178   9.150  -5.633  1.00  0.00    -0.273 OA
ATOM      3  N   GLY A   4      20.560   9.917  -7.795  1.00  0.00    -0.345 N 
ATOM      4  H   UNL     1      20.398  10.668  -8.504  1.00  0.00     0.164 HD
ENDROOT
BRANCH   1   5
ATOM      5  CA  LEU A   3      19.333  11.344  -6.141  1.00  0.00     0.171 C 
BRANCH   5   6
ATOM      6  N   LEU A   3      18.076  11.008  -5.523  1.00  0.00    -0.342 N 
ATOM      7  C   THR A   2      16.877  11.740  -5.743  1.00  0.00     0.245 C 
ATOM      8  O   THR A   2      16.894  12.789  -6.446  1.00  0.00    -0.273 OA
ATOM      9  H   UNL     1      18.148  10.357  -4.717  1.00  0.00     0.164 HD
BRANCH   7  10
ATOM     10  CA  THR A   2      15.625  11.284  -5.042  1.00  0.00     0.200 C 
BRANCH  10  11
ATOM     11  N   THR A   2      14.445  11.732  -5.769  1.00  0.00    -0.341 N 
ATOM     12  C   SER A   1      13.914  13.045  -5.637  1.00  0.00     0.240 C 
ATOM     13  O   SER A   1      14.451  13.862  -4.838  1.00  0.00    -0.273 OA
ATOM     14  H   UNL     1      13.877  11.011  -6.262  1.00  0.00     0.164 HD
BRANCH  12  15
ATOM     15  CA  SER A   1      12.655  13.410  -6.386  1.00  0.00     0.167 C 
BRANCH  15  16
ATOM     16  N   SER A   1      12.469  14.863  -6.378  1.00  0.00    -0.318 NA
ATOM     17  H   UNL     1      11.583  15.090  -6.886  1.00  0.00     0.119 HD
ATOM     18  H   UNL     1      12.306  15.171  -5.391  1.00  0.00     0.119 HD
ENDBRANCH  15  16
BRANCH  15  19
ATOM     19  CB  SER A   1      12.694  12.902  -7.848  1.00  0.00     0.184 C 
BRANCH  19  20
ATOM     20  OG  SER A   1      11.437  13.041  -8.450  1.00  0.00    -0.394 OA
ATOM     21  H   UNL     1      10.857  12.331  -8.068  1.00  0.00     0.210 HD
ENDBRANCH  19  20
ENDBRANCH  15  19
ENDBRANCH  12  15
ENDBRANCH  10  11
BRANCH  10  22
ATOM     22  CB  THR A   2      15.584   9.736  -4.893  1.00  0.00     0.143 C 
ATOM     23  CG2 THR A   2      14.379   9.272  -4.083  1.00  0.00     0.041 C 
BRANCH  22  24
ATOM     24  OG1 THR A   2      15.586   9.123  -6.158  1.00  0.00    -0.391 OA
ATOM     25  H   UNL     1      15.874   8.182  -6.025  1.00  0.00     0.211 HD
ENDBRANCH  22  24
ENDBRANCH  10  22
ENDBRANCH   7  10
ENDBRANCH   5   6
BRANCH   5  26
ATOM     26  CB  LEU A   3      20.160  12.247  -5.216  1.00  0.00     0.038 C 
BRANCH  26  27
ATOM     27  CG  LEU A   3      20.416  11.676  -3.792  1.00  0.00    -0.015 C 
ATOM     28  CD1 LEU A   3      21.818  12.067  -3.319  1.00  0.00     0.007 C 
ATOM     29  CD2 LEU A   3      19.368  12.166  -2.781  1.00  0.00     0.007 C 
ENDBRANCH  26  27
ENDBRANCH   5  26
ENDBRANCH   1   5
BRANCH   3  30
ATOM     30  CA  GLY A   4      21.332   8.760  -8.202  1.00  0.00     0.216 C 
BRANCH  30  31
ATOM     31  C   GLY A   4      22.706   9.206  -8.539  1.00  0.00     0.240 C 
ATOM     32  N   ARG A   5      23.806   8.709  -7.788  1.00  0.00    -0.343 N 
ATOM     33  O   GLY A   4      22.885  10.031  -9.475  1.00  0.00    -0.273 OA
ATOM     34  H   UNL     1      23.639   7.993  -7.045  1.00  0.00     0.164 HD
BRANCH  32  35
ATOM     35  CA  ARG A   5      25.174   9.114  -8.068  1.00  0.00     0.171 C 
BRANCH  35  36
ATOM     36  C   ARG A   5      25.896   7.965  -8.683  1.00  0.00     0.243 C 
ATOM     37  N   ASN A   6      25.915   7.866 -10.101  1.00  0.00    -0.341 N 
ATOM     38  O   ARG A   5      26.447   7.086  -7.969  1.00  0.00    -0.273 OA
ATOM     39  H   UNL     1      25.495   8.652 -10.649  1.00  0.00     0.164 HD
BRANCH  37  40
ATOM     40  CA  ASN A   6      26.543   6.752 -10.803  1.00  0.00     0.201 C 
BRANCH  40  41
ATOM     41  C   ASN A   6      27.993   6.642 -10.416  1.00  0.00     0.326 C 
ATOM     42  O   ASN A   6      28.795   7.579 -10.677  1.00  0.00    -0.250 OA
BRANCH  41  43
ATOM     43  OXT ASN A   6      28.452   5.499  -9.769  1.00  0.00    -0.480 OA
ATOM     44  H   UNL     1      29.425   5.409  -9.501  1.00  0.00     0.296 HD
ENDBRANCH  41  43
ENDBRANCH  40  41
BRANCH  40  45
ATOM     45  CB  ASN A   6      26.424   6.947 -12.323  1.00  0.00     0.136 C 
BRANCH  45  46
ATOM     46  CG  ASN A   6      25.010   7.182 -12.772  1.00  0.00     0.220 C 
ATOM     47  ND2 ASN A   6      24.754   8.089 -13.834  1.00  0.00    -0.370 N 
ATOM     48  OD1 ASN A   6      24.051   6.563 -12.238  1.00  0.00    -0.275 OA
ATOM     49  H   UNL     1      23.775   8.257 -14.157  1.00  0.00     0.159 HD
ATOM     50  H   UNL     1      25.534   8.596 -14.309  1.00  0.00     0.159 HD
ENDBRANCH  45  46
ENDBRANCH  40  45
ENDBRANCH  37  40
ENDBRANCH  35  36
BRANCH  35  51
ATOM     51  CB  ARG A   5      25.851   9.597  -6.790  1.00  0.00     0.037 C 
BRANCH  51  52
ATOM     52  CG  ARG A   5      25.162  10.858  -6.269  1.00  0.00     0.024 C 
BRANCH  52  53
ATOM     53  CD  ARG A   5      25.838  11.390  -5.014  1.00  0.00     0.116 C 
BRANCH  53  54
ATOM     54  NE  ARG A   5      25.377  10.686  -3.820  1.00  0.00    -0.357 N 
ATOM     55  CZ  ARG A   5      25.469  11.281  -2.526  1.00  0.00     0.185 C 
ATOM     56  NH2 ARG A   5      26.108  12.546  -2.352  1.00  0.00    -0.370 N 
ATOM     57  H   UNL     1      24.893   9.763  -3.911  1.00  0.00     0.163 HD
ATOM     58  H   UNL     1      26.697  12.982  -3.094  1.00  0.00     0.159 HD
ATOM     59  H   UNL     1      26.080  13.024  -1.424  1.00  0.00     0.159 HD
BRANCH  55  60
ATOM     60  NH1 ARG A   5      24.955  10.672  -1.506  1.00  0.00    -0.270 NA
ATOM     61  H   UNL     1      24.996  11.077  -0.545  1.00  0.00     0.191 HD
ENDBRANCH  55  60
ENDBRANCH  53  54
ENDBRANCH  52  53
ENDBRANCH  51  52
ENDBRANCH  35  51
ENDBRANCH  32  35
ENDBRANCH  30  31
ENDBRANCH   3  30
TORSDOF 26
