REMARK SMILES CC(C)C[C@H](NC(=O)[C@H](CO)NC(=O)[C@@H]1CCCN1C(=O)[C@@H](N)CO)C(=O)N[C@@H](CCCNC(=N)N)C(=O)N[C@@H](CC(N)=O)C(=O)O
REMARK SMILES IDX 7 1 8 2 6 3 9 5 12 6 13 7 14 8 15 10 19 11 18 12 16 13 17 14
REMARK SMILES IDX 20 15 21 16 22 17 23 18 24 21 25 22 10 24 11 25 5 27 26 28
REMARK SMILES IDX 28 29 27 30 29 32 37 33 39 34 38 35 40 37 45 38 46 39 47 40
REMARK SMILES IDX 41 42 42 43 43 44 44 45 30 48 31 49 32 50 33 51 34 52 36 53
REMARK SMILES IDX 35 57 4 59 2 60 1 61 3 62
REMARK H PARENT 6 4 12 9 23 19 23 20 25 23 11 26 28 31 39 36 47 41 43 46 43 47
REMARK H PARENT 33 54 36 55 36 56 35 58
ROOT
ATOM      1  C   SER A   3       2.324   1.159  -0.687  1.00  0.00     0.245 C 
ATOM      2  O   SER A   3       2.679   0.028  -1.127  1.00  0.00    -0.273 OA
ATOM      3  N   LEU A   4       1.227   1.268   0.230  1.00  0.00    -0.342 N 
ATOM      4  H   UNL     1       1.011   2.211   0.624  1.00  0.00     0.164 HD
ENDROOT
BRANCH   1   5
ATOM      5  CA  SER A   3       2.997   2.406  -1.185  1.00  0.00     0.197 C 
BRANCH   5   6
ATOM      6  N   SER A   3       4.393   2.116  -1.534  1.00  0.00    -0.340 N 
ATOM      7  C   PRO A   2       5.467   2.223  -0.590  1.00  0.00     0.243 C 
ATOM      8  O   PRO A   2       5.260   2.702   0.556  1.00  0.00    -0.273 OA
ATOM      9  H   UNL     1       4.591   1.687  -2.466  1.00  0.00     0.164 HD
BRANCH   7  10
ATOM     10  CA  PRO A   2       6.855   1.780  -0.972  1.00  0.00     0.174 C 
ATOM     11  N   PRO A   2       6.828   0.468  -1.608  1.00  0.00    -0.329 N 
ATOM     12  CD  PRO A   2       7.418   0.480  -2.937  1.00  0.00     0.120 C 
ATOM     13  CB  PRO A   2       7.466   2.734  -2.007  1.00  0.00     0.037 C 
ATOM     14  CG  PRO A   2       8.062   1.850  -3.099  1.00  0.00     0.024 C 
BRANCH  11  15
ATOM     15  C   SER A   1       6.383  -0.756  -0.985  1.00  0.00     0.242 C 
ATOM     16  O   SER A   1       6.211  -1.778  -1.700  1.00  0.00    -0.273 OA
BRANCH  15  17
ATOM     17  CA  SER A   1       6.224  -0.878   0.520  1.00  0.00     0.167 C 
BRANCH  17  18
ATOM     18  N   SER A   1       5.139  -1.793   0.885  1.00  0.00    -0.318 NA
ATOM     19  H   UNL     1       4.252  -1.434   0.470  1.00  0.00     0.119 HD
ATOM     20  H   UNL     1       5.312  -2.739   0.468  1.00  0.00     0.119 HD
ENDBRANCH  17  18
BRANCH  17  21
ATOM     21  CB  SER A   1       7.541  -1.330   1.162  1.00  0.00     0.184 C 
BRANCH  21  22
ATOM     22  OG  SER A   1       7.923  -2.590   0.681  1.00  0.00    -0.394 OA
ATOM     23  H   UNL     1       8.840  -2.765   1.032  1.00  0.00     0.210 HD
ENDBRANCH  21  22
ENDBRANCH  17  21
ENDBRANCH  15  17
ENDBRANCH  11  15
ENDBRANCH   7  10
ENDBRANCH   5   6
BRANCH   5  24
ATOM     24  CB  SER A   3       2.253   2.953  -2.409  1.00  0.00     0.191 C 
BRANCH  24  25
ATOM     25  OG  SER A   3       0.965   3.377  -2.048  1.00  0.00    -0.394 OA
ATOM     26  H   UNL     1       0.517   3.635  -2.894  1.00  0.00     0.210 HD
ENDBRANCH  24  25
ENDBRANCH   5  24
ENDBRANCH   1   5
BRANCH   3  27
ATOM     27  CA  LEU A   4       0.379   0.125   0.591  1.00  0.00     0.171 C 
BRANCH  27  28
ATOM     28  C   LEU A   4      -1.085   0.511   0.636  1.00  0.00     0.243 C 
ATOM     29  N   ARG A   5      -2.092  -0.513   0.677  1.00  0.00    -0.343 N 
ATOM     30  O   LEU A   4      -1.425   1.727   0.599  1.00  0.00    -0.273 OA
ATOM     31  H   UNL     1      -1.790  -1.505   0.792  1.00  0.00     0.164 HD
BRANCH  29  32
ATOM     32  CA  ARG A   5      -3.507  -0.244   0.396  1.00  0.00     0.171 C 
BRANCH  32  33
ATOM     33  C   ARG A   5      -4.398  -0.818   1.469  1.00  0.00     0.243 C 
ATOM     34  N   ASN A   6      -5.767  -0.402   1.557  1.00  0.00    -0.341 N 
ATOM     35  O   ARG A   5      -3.957  -1.697   2.259  1.00  0.00    -0.273 OA
ATOM     36  H   UNL     1      -6.107   0.334   0.897  1.00  0.00     0.164 HD
BRANCH  34  37
ATOM     37  CA  ASN A   6      -6.706  -1.018   2.499  1.00  0.00     0.201 C 
BRANCH  37  38
ATOM     38  C   ASN A   6      -7.090  -2.387   2.012  1.00  0.00     0.326 C 
ATOM     39  O   ASN A   6      -7.489  -2.552   0.828  1.00  0.00    -0.250 OA
BRANCH  38  40
ATOM     40  OXT ASN A   6      -7.045  -3.470   2.886  1.00  0.00    -0.480 OA
ATOM     41  H   UNL     1      -7.310  -4.396   2.576  1.00  0.00     0.296 HD
ENDBRANCH  38  40
ENDBRANCH  37  38
BRANCH  37  42
ATOM     42  CB  ASN A   6      -7.965  -0.148   2.673  1.00  0.00     0.136 C 
BRANCH  42  43
ATOM     43  CG  ASN A   6      -7.625   1.223   3.190  1.00  0.00     0.220 C 
ATOM     44  ND2 ASN A   6      -7.964   2.392   2.433  1.00  0.00    -0.370 N 
ATOM     45  OD1 ASN A   6      -7.061   1.346   4.315  1.00  0.00    -0.275 OA
ATOM     46  H   UNL     1      -7.732   3.347   2.787  1.00  0.00     0.159 HD
ATOM     47  H   UNL     1      -8.504   2.307   1.541  1.00  0.00     0.159 HD
ENDBRANCH  42  43
ENDBRANCH  37  42
ENDBRANCH  34  37
ENDBRANCH  32  33
BRANCH  32  48
ATOM     48  CB  ARG A   5      -3.890  -0.771  -1.004  1.00  0.00     0.037 C 
BRANCH  48  49
ATOM     49  CG  ARG A   5      -3.781  -2.302  -1.136  1.00  0.00     0.024 C 
BRANCH  49  50
ATOM     50  CD  ARG A   5      -4.261  -2.797  -2.505  1.00  0.00     0.116 C 
BRANCH  50  51
ATOM     51  NE  ARG A   5      -5.718  -2.695  -2.638  1.00  0.00    -0.357 N 
ATOM     52  CZ  ARG A   5      -6.441  -3.153  -3.795  1.00  0.00     0.185 C 
ATOM     53  NH2 ARG A   5      -7.864  -3.044  -3.821  1.00  0.00    -0.370 N 
ATOM     54  H   UNL     1      -6.271  -2.284  -1.853  1.00  0.00     0.163 HD
ATOM     55  H   UNL     1      -8.415  -3.522  -4.564  1.00  0.00     0.159 HD
ATOM     56  H   UNL     1      -8.379  -2.638  -3.004  1.00  0.00     0.159 HD
BRANCH  52  57
ATOM     57  NH1 ARG A   5      -5.831  -3.690  -4.807  1.00  0.00    -0.270 NA
ATOM     58  H   UNL     1      -4.798  -3.816  -4.852  1.00  0.00     0.191 HD
ENDBRANCH  52  57
ENDBRANCH  50  51
ENDBRANCH  49  50
ENDBRANCH  48  49
ENDBRANCH  32  48
ENDBRANCH  29  32
ENDBRANCH  27  28
BRANCH  27  59
ATOM     59  CB  LEU A   4       0.878  -0.587   1.879  1.00  0.00     0.038 C 
BRANCH  59  60
ATOM     60  CG  LEU A   4       1.145   0.264   3.151  1.00  0.00    -0.015 C 
ATOM     61  CD1 LEU A   4       0.001   1.216   3.514  1.00  0.00     0.007 C 
ATOM     62  CD2 LEU A   4       2.492   1.002   3.120  1.00  0.00     0.007 C 
ENDBRANCH  59  60
ENDBRANCH  27  59
ENDBRANCH   3  27
TORSDOF 26
