REMARK SMILES CC(C)C[C@H](NC(=O)[C@H](Cc1ccccc1)NC(=O)[C@H](C)N)C(=O)N[C@@H](CO)C(=O)N[C@@H](CCCNC(=N)N)C(=O)N[C@@H](CC(N)=O)C(=O)O
REMARK SMILES IDX 26 1 25 2 23 3 24 4 5 6 6 7 7 8 8 9 9 11 17 12 18 13 19 14
REMARK SMILES IDX 20 16 21 17 22 18 10 21 11 22 12 23 16 24 13 25 15 26 14 27
REMARK SMILES IDX 4 28 2 29 1 30 3 31 29 32 31 33 30 34 32 36 40 37 42 38
REMARK SMILES IDX 41 39 43 41 48 42 49 43 50 44 44 46 45 47 46 48 47 49 33 52
REMARK SMILES IDX 34 53 35 54 36 55 37 56 39 57 38 61 27 63 28 64
REMARK H PARENT 25 5 6 10 17 15 22 19 22 20 31 35 42 40 50 45 46 50 46 51
REMARK H PARENT 36 58 39 59 39 60 38 62 28 65
ROOT
ATOM      1  CA  SER A   4      21.343   8.739  -8.144  1.00  0.00     0.197 C 
ENDROOT
BRANCH   1   2
ATOM      2  N   SER A   4      20.567   9.902  -7.761  1.00  0.00    -0.340 N 
ATOM      3  C   LEU A   3      20.069  10.083  -6.443  1.00  0.00     0.243 C 
ATOM      4  O   LEU A   3      20.203   9.182  -5.570  1.00  0.00    -0.273 OA
ATOM      5  H   UNL     1      20.400  10.640  -8.483  1.00  0.00     0.164 HD
BRANCH   3   6
ATOM      6  CA  LEU A   3      19.339  11.338  -6.135  1.00  0.00     0.171 C 
BRANCH   6   7
ATOM      7  N   LEU A   3      18.090  11.025  -5.503  1.00  0.00    -0.343 N 
ATOM      8  C   PHE A   2      16.892  11.744  -5.765  1.00  0.00     0.243 C 
ATOM      9  O   PHE A   2      16.915  12.789  -6.472  1.00  0.00    -0.273 OA
ATOM     10  H   UNL     1      18.158  10.397  -4.681  1.00  0.00     0.164 HD
BRANCH   8  11
ATOM     11  CA  PHE A   2      15.649  11.314  -5.064  1.00  0.00     0.175 C 
BRANCH  11  12
ATOM     12  N   PHE A   2      14.468  11.750  -5.796  1.00  0.00    -0.343 N 
ATOM     13  C   ALA A   1      13.907  13.049  -5.629  1.00  0.00     0.237 C 
ATOM     14  O   ALA A   1      14.432  13.860  -4.818  1.00  0.00    -0.273 OA
ATOM     15  H   UNL     1      14.019  11.072  -6.449  1.00  0.00     0.164 HD
BRANCH  13  16
ATOM     16  CA  ALA A   1      12.657  13.423  -6.382  1.00  0.00     0.138 C 
ATOM     17  CB  ALA A   1      12.676  12.885  -7.825  1.00  0.00     0.035 C 
BRANCH  16  18
ATOM     18  N   ALA A   1      12.490  14.876  -6.383  1.00  0.00    -0.320 NA
ATOM     19  H   UNL     1      13.214  15.308  -7.004  1.00  0.00     0.119 HD
ATOM     20  H   UNL     1      11.553  15.108  -6.784  1.00  0.00     0.119 HD
ENDBRANCH  16  18
ENDBRANCH  13  16
ENDBRANCH  11  12
BRANCH  11  21
ATOM     21  CB  PHE A   2      15.599   9.776  -4.893  1.00  0.00     0.070 C 
BRANCH  21  22
ATOM     22  CG  PHE A   2      14.430   9.295  -4.097  1.00  0.00    -0.045 A 
ATOM     23  CD1 PHE A   2      13.896  10.050  -3.036  1.00  0.00     0.004 A 
ATOM     24  CD2 PHE A   2      13.961   7.992  -4.312  1.00  0.00     0.004 A 
ATOM     25  CE1 PHE A   2      12.867   9.536  -2.258  1.00  0.00     0.000 A 
ATOM     26  CE2 PHE A   2      12.937   7.477  -3.519  1.00  0.00     0.000 A 
ATOM     27  CZ  PHE A   2      12.385   8.252  -2.499  1.00  0.00     0.000 A 
ENDBRANCH  21  22
ENDBRANCH  11  21
ENDBRANCH   8  11
ENDBRANCH   6   7
BRANCH   6  28
ATOM     28  CB  LEU A   3      20.158  12.342  -5.313  1.00  0.00     0.038 C 
BRANCH  28  29
ATOM     29  CG  LEU A   3      20.434  12.204  -3.789  1.00  0.00    -0.015 C 
ATOM     30  CD1 LEU A   3      21.823  11.746  -3.387  1.00  0.00     0.007 C 
ATOM     31  CD2 LEU A   3      19.303  11.894  -2.821  1.00  0.00     0.007 C 
ENDBRANCH  28  29
ENDBRANCH   6  28
ENDBRANCH   3   6
ENDBRANCH   1   2
BRANCH   1  32
ATOM     32  C   SER A   4      22.709   9.195  -8.526  1.00  0.00     0.245 C 
ATOM     33  N   ARG A   5      23.819   8.705  -7.789  1.00  0.00    -0.342 N 
ATOM     34  O   SER A   4      22.872  10.023  -9.465  1.00  0.00    -0.273 OA
ATOM     35  H   UNL     1      23.667   7.983  -7.047  1.00  0.00     0.164 HD
BRANCH  33  36
ATOM     36  CA  ARG A   5      25.181   9.117  -8.072  1.00  0.00     0.171 C 
BRANCH  36  37
ATOM     37  C   ARG A   5      25.902   7.968  -8.686  1.00  0.00     0.243 C 
ATOM     38  N   ASN A   6      25.916   7.866 -10.103  1.00  0.00    -0.341 N 
ATOM     39  O   ARG A   5      26.450   7.087  -7.970  1.00  0.00    -0.273 OA
ATOM     40  H   UNL     1      25.496   8.651 -10.651  1.00  0.00     0.164 HD
BRANCH  38  41
ATOM     41  CA  ASN A   6      26.543   6.751 -10.804  1.00  0.00     0.201 C 
BRANCH  41  42
ATOM     42  C   ASN A   6      27.994   6.642 -10.417  1.00  0.00     0.326 C 
ATOM     43  O   ASN A   6      28.795   7.579 -10.677  1.00  0.00    -0.250 OA
BRANCH  42  44
ATOM     44  OXT ASN A   6      28.453   5.497  -9.772  1.00  0.00    -0.480 OA
ATOM     45  H   UNL     1      29.426   5.407  -9.504  1.00  0.00     0.296 HD
ENDBRANCH  42  44
ENDBRANCH  41  42
BRANCH  41  46
ATOM     46  CB  ASN A   6      26.424   6.946 -12.323  1.00  0.00     0.136 C 
BRANCH  46  47
ATOM     47  CG  ASN A   6      25.009   7.181 -12.772  1.00  0.00     0.220 C 
ATOM     48  ND2 ASN A   6      24.753   8.089 -13.834  1.00  0.00    -0.370 N 
ATOM     49  OD1 ASN A   6      24.051   6.563 -12.238  1.00  0.00    -0.275 OA
ATOM     50  H   UNL     1      23.775   8.258 -14.156  1.00  0.00     0.159 HD
ATOM     51  H   UNL     1      25.533   8.595 -14.309  1.00  0.00     0.159 HD
ENDBRANCH  46  47
ENDBRANCH  41  46
ENDBRANCH  38  41
ENDBRANCH  36  37
BRANCH  36  52
ATOM     52  CB  ARG A   5      25.856   9.601  -6.794  1.00  0.00     0.037 C 
BRANCH  52  53
ATOM     53  CG  ARG A   5      25.163  10.859  -6.272  1.00  0.00     0.024 C 
BRANCH  53  54
ATOM     54  CD  ARG A   5      25.837  11.391  -5.015  1.00  0.00     0.116 C 
BRANCH  54  55
ATOM     55  NE  ARG A   5      25.375  10.685  -3.823  1.00  0.00    -0.357 N 
ATOM     56  CZ  ARG A   5      25.467  11.279  -2.527  1.00  0.00     0.185 C 
ATOM     57  NH2 ARG A   5      26.106  12.541  -2.350  1.00  0.00    -0.370 N 
ATOM     58  H   UNL     1      24.893   9.761  -3.921  1.00  0.00     0.163 HD
ATOM     59  H   UNL     1      26.691  12.982  -3.092  1.00  0.00     0.159 HD
ATOM     60  H   UNL     1      26.083  13.007  -1.416  1.00  0.00     0.159 HD
BRANCH  56  61
ATOM     61  NH1 ARG A   5      24.956  10.680  -1.500  1.00  0.00    -0.270 NA
ATOM     62  H   UNL     1      24.473   9.758  -1.584  1.00  0.00     0.191 HD
ENDBRANCH  56  61
ENDBRANCH  54  55
ENDBRANCH  53  54
ENDBRANCH  52  53
ENDBRANCH  36  52
ENDBRANCH  33  36
ENDBRANCH   1  32
BRANCH   1  63
ATOM     63  CB  SER A   4      20.662   8.001  -9.295  1.00  0.00     0.191 C 
BRANCH  63  64
ATOM     64  OG  SER A   4      19.385   7.565  -8.912  1.00  0.00    -0.394 OA
ATOM     65  H   UNL     1      19.518   6.774  -8.326  1.00  0.00     0.210 HD
ENDBRANCH  63  64
ENDBRANCH   1  63
TORSDOF 26
