REMARK SMILES N=C(N)NCCC[C@H](NC(=O)[C@H](Cc1ccccc1)NC(=O)[C@H](CCCNC(=N)N)NC(=O)[C@H](Cc1ccccc1)NC(=O)[C@@H](N)CO)C(=O)N[C@@H](CC(N)=O)C(=O)O
REMARK SMILES IDX 21 1 22 2 20 3 23 5 31 6 32 7 33 8 34 10 42 11 43 12 44 13
REMARK SMILES IDX 45 15 46 16 47 19 48 20 35 22 36 23 37 24 41 25 38 26 40 27
REMARK SMILES IDX 39 28 24 29 25 30 26 31 27 32 28 33 30 34 29 38 12 40 10 41
REMARK SMILES IDX 9 42 11 43 8 45 49 46 51 47 50 48 52 50 57 51 58 52 59 53
REMARK SMILES IDX 53 55 54 56 55 57 56 58 7 61 6 62 5 63 4 64 2 65 3 66 1 70
REMARK SMILES IDX 13 72 14 73 15 74 19 75 16 76 18 77 17 78
REMARK H PARENT 20 4 31 9 42 14 46 17 46 18 48 21 27 35 30 36 30 37 29 39 9 44
REMARK H PARENT 51 49 59 54 55 59 55 60 4 67 3 68 3 69 1 71
ROOT
ATOM      1  C   ARG A   3      20.037  10.079  -6.474  1.00  0.00     0.243 C 
ATOM      2  O   ARG A   3      20.149   9.158  -5.617  1.00  0.00    -0.273 OA
ATOM      3  N   PHE A   4      20.566   9.914  -7.779  1.00  0.00    -0.342 N 
ATOM      4  H   UNL     1      20.408  10.656  -8.499  1.00  0.00     0.164 HD
ENDROOT
BRANCH   1   5
ATOM      5  CA  ARG A   3      19.336  11.354  -6.142  1.00  0.00     0.171 C 
BRANCH   5   6
ATOM      6  N   ARG A   3      18.086  11.048  -5.497  1.00  0.00    -0.343 N 
ATOM      7  C   PHE A   2      16.885  11.750  -5.772  1.00  0.00     0.243 C 
ATOM      8  O   PHE A   2      16.901  12.792  -6.483  1.00  0.00    -0.273 OA
ATOM      9  H   UNL     1      18.164  10.515  -4.606  1.00  0.00     0.164 HD
BRANCH   7  10
ATOM     10  CA  PHE A   2      15.649  11.313  -5.060  1.00  0.00     0.175 C 
BRANCH  10  11
ATOM     11  N   PHE A   2      14.452  11.740  -5.769  1.00  0.00    -0.343 N 
ATOM     12  C   SER A   1      13.914  13.051  -5.637  1.00  0.00     0.239 C 
ATOM     13  O   SER A   1      14.449  13.870  -4.839  1.00  0.00    -0.273 OA
ATOM     14  H   UNL     1      13.859  11.001  -6.207  1.00  0.00     0.164 HD
BRANCH  12  15
ATOM     15  CA  SER A   1      12.655  13.411  -6.383  1.00  0.00     0.167 C 
BRANCH  15  16
ATOM     16  N   SER A   1      12.467  14.863  -6.382  1.00  0.00    -0.318 NA
ATOM     17  H   UNL     1      12.304  15.175  -5.397  1.00  0.00     0.119 HD
ATOM     18  H   UNL     1      11.581  15.088  -6.891  1.00  0.00     0.119 HD
ENDBRANCH  15  16
BRANCH  15  19
ATOM     19  CB  SER A   1      12.694  12.894  -7.842  1.00  0.00     0.184 C 
BRANCH  19  20
ATOM     20  OG  SER A   1      11.440  13.037  -8.449  1.00  0.00    -0.394 OA
ATOM     21  H   UNL     1      10.855  12.333  -8.065  1.00  0.00     0.210 HD
ENDBRANCH  19  20
ENDBRANCH  15  19
ENDBRANCH  12  15
ENDBRANCH  10  11
BRANCH  10  22
ATOM     22  CB  PHE A   2      15.612   9.774  -4.892  1.00  0.00     0.070 C 
BRANCH  22  23
ATOM     23  CG  PHE A   2      14.444   9.289  -4.090  1.00  0.00    -0.045 A 
ATOM     24  CD1 PHE A   2      13.903  10.046  -3.033  1.00  0.00     0.004 A 
ATOM     25  CD2 PHE A   2      13.968   7.989  -4.310  1.00  0.00     0.004 A 
ATOM     26  CE1 PHE A   2      12.869   9.535  -2.260  1.00  0.00     0.000 A 
ATOM     27  CE2 PHE A   2      12.939   7.477  -3.521  1.00  0.00     0.000 A 
ATOM     28  CZ  PHE A   2      12.386   8.252  -2.502  1.00  0.00     0.000 A 
ENDBRANCH  22  23
ENDBRANCH  10  22
ENDBRANCH   7  10
ENDBRANCH   5   6
BRANCH   5  29
ATOM     29  CB  ARG A   3      20.190  12.250  -5.240  1.00  0.00     0.037 C 
BRANCH  29  30
ATOM     30  CG  ARG A   3      20.432  11.699  -3.816  1.00  0.00     0.024 C 
BRANCH  30  31
ATOM     31  CD  ARG A   3      21.817  12.081  -3.294  1.00  0.00     0.116 C 
BRANCH  31  32
ATOM     32  NE  ARG A   3      21.892  13.516  -3.004  1.00  0.00    -0.357 N 
ATOM     33  CZ  ARG A   3      22.328  14.541  -3.918  1.00  0.00     0.185 C 
ATOM     34  NH2 ARG A   3      22.017  15.905  -3.631  1.00  0.00    -0.370 N 
ATOM     35  H   UNL     1      21.440  13.831  -2.117  1.00  0.00     0.163 HD
ATOM     36  H   UNL     1      22.333  16.668  -4.271  1.00  0.00     0.159 HD
ATOM     37  H   UNL     1      21.466  16.157  -2.781  1.00  0.00     0.159 HD
BRANCH  33  38
ATOM     38  NH1 ARG A   3      23.021  14.270  -4.980  1.00  0.00    -0.270 NA
ATOM     39  H   UNL     1      23.315  13.313  -5.265  1.00  0.00     0.191 HD
ENDBRANCH  33  38
ENDBRANCH  31  32
ENDBRANCH  30  31
ENDBRANCH  29  30
ENDBRANCH   5  29
ENDBRANCH   1   5
BRANCH   3  40
ATOM     40  CA  PHE A   4      21.351   8.749  -8.145  1.00  0.00     0.175 C 
BRANCH  40  41
ATOM     41  C   PHE A   4      22.714   9.205  -8.527  1.00  0.00     0.243 C 
ATOM     42  N   ARG A   5      23.823   8.716  -7.787  1.00  0.00    -0.343 N 
ATOM     43  O   PHE A   4      22.877  10.026  -9.470  1.00  0.00    -0.273 OA
ATOM     44  H   UNL     1      23.669   8.015  -7.026  1.00  0.00     0.164 HD
BRANCH  42  45
ATOM     45  CA  ARG A   5      25.185   9.120  -8.073  1.00  0.00     0.171 C 
BRANCH  45  46
ATOM     46  C   ARG A   5      25.901   7.967  -8.686  1.00  0.00     0.243 C 
ATOM     47  N   ASN A   6      25.914   7.864 -10.103  1.00  0.00    -0.341 N 
ATOM     48  O   ARG A   5      26.448   7.086  -7.970  1.00  0.00    -0.273 OA
ATOM     49  H   UNL     1      25.490   8.647 -10.651  1.00  0.00     0.164 HD
BRANCH  47  50
ATOM     50  CA  ASN A   6      26.543   6.751 -10.805  1.00  0.00     0.201 C 
BRANCH  50  51
ATOM     51  C   ASN A   6      27.993   6.642 -10.415  1.00  0.00     0.326 C 
ATOM     52  O   ASN A   6      28.795   7.578 -10.676  1.00  0.00    -0.250 OA
BRANCH  51  53
ATOM     53  OXT ASN A   6      28.450   5.499  -9.766  1.00  0.00    -0.480 OA
ATOM     54  H   UNL     1      29.422   5.409  -9.496  1.00  0.00     0.296 HD
ENDBRANCH  51  53
ENDBRANCH  50  51
BRANCH  50  55
ATOM     55  CB  ASN A   6      26.429   6.950 -12.325  1.00  0.00     0.136 C 
BRANCH  55  56
ATOM     56  CG  ASN A   6      25.017   7.186 -12.776  1.00  0.00     0.220 C 
ATOM     57  ND2 ASN A   6      24.759   8.093 -13.838  1.00  0.00    -0.370 N 
ATOM     58  OD1 ASN A   6      24.061   6.570 -12.241  1.00  0.00    -0.275 OA
ATOM     59  H   UNL     1      25.539   8.599 -14.313  1.00  0.00     0.159 HD
ATOM     60  H   UNL     1      23.780   8.261 -14.159  1.00  0.00     0.159 HD
ENDBRANCH  55  56
ENDBRANCH  50  55
ENDBRANCH  47  50
ENDBRANCH  45  46
BRANCH  45  61
ATOM     61  CB  ARG A   5      25.862   9.603  -6.796  1.00  0.00     0.037 C 
BRANCH  61  62
ATOM     62  CG  ARG A   5      25.169  10.861  -6.271  1.00  0.00     0.024 C 
BRANCH  62  63
ATOM     63  CD  ARG A   5      25.848  11.386  -5.014  1.00  0.00     0.116 C 
BRANCH  63  64
ATOM     64  NE  ARG A   5      25.375  10.686  -3.823  1.00  0.00    -0.357 N 
ATOM     65  CZ  ARG A   5      25.466  11.280  -2.527  1.00  0.00     0.185 C 
ATOM     66  NH2 ARG A   5      26.104  12.543  -2.350  1.00  0.00    -0.370 N 
ATOM     67  H   UNL     1      24.893   9.763  -3.921  1.00  0.00     0.163 HD
ATOM     68  H   UNL     1      26.075  13.011  -1.416  1.00  0.00     0.159 HD
ATOM     69  H   UNL     1      26.695  12.982  -3.088  1.00  0.00     0.159 HD
BRANCH  65  70
ATOM     70  NH1 ARG A   5      24.955  10.681  -1.500  1.00  0.00    -0.270 NA
ATOM     71  H   UNL     1      24.473   9.758  -1.584  1.00  0.00     0.191 HD
ENDBRANCH  65  70
ENDBRANCH  63  64
ENDBRANCH  62  63
ENDBRANCH  61  62
ENDBRANCH  45  61
ENDBRANCH  42  45
ENDBRANCH  40  41
BRANCH  40  72
ATOM     72  CB  PHE A   4      20.660   7.989  -9.280  1.00  0.00     0.070 C 
BRANCH  72  73
ATOM     73  CG  PHE A   4      21.387   6.751  -9.776  1.00  0.00    -0.045 A 
ATOM     74  CD1 PHE A   4      21.112   6.305 -11.083  1.00  0.00     0.004 A 
ATOM     75  CD2 PHE A   4      22.158   5.923  -8.932  1.00  0.00     0.004 A 
ATOM     76  CE1 PHE A   4      21.617   5.085 -11.543  1.00  0.00     0.000 A 
ATOM     77  CE2 PHE A   4      22.688   4.720  -9.408  1.00  0.00     0.000 A 
ATOM     78  CZ  PHE A   4      22.416   4.300 -10.710  1.00  0.00     0.000 A 
ENDBRANCH  72  73
ENDBRANCH  40  72
ENDBRANCH   3  40
TORSDOF 31
