REMARK SMILES CC(C)C[C@H](NC(=O)[C@H](CCC(N)=O)NC(=O)[C@H](Cc1ccccc1)NC(=O)[C@@H](N)CO)C(=O)N[C@@H](CCCCN)C(=O)N[C@@H](CC(N)=O)C(=O)O
REMARK SMILES IDX 7 1 8 2 6 3 9 5 15 6 16 7 17 8 18 10 26 11 27 12 28 13 29 15
REMARK SMILES IDX 30 16 31 19 32 20 19 22 20 23 21 24 25 25 22 26 24 27 23 28
REMARK SMILES IDX 10 29 11 30 12 31 13 32 14 33 5 36 33 37 35 38 34 39 36 41
REMARK SMILES IDX 42 42 44 43 43 44 45 46 50 47 51 48 52 49 46 51 47 52 48 53
REMARK SMILES IDX 49 54 37 57 38 58 39 59 40 60 41 61 4 64 2 65 1 66 3 67
REMARK H PARENT 6 4 15 9 26 14 30 17 30 18 32 21 13 34 13 35 35 40 44 45 52 50
REMARK H PARENT 48 55 48 56 41 62 41 63
ROOT
ATOM      1  C   GLN A   3      20.038  10.084  -6.470  1.00  0.00     0.243 C 
ATOM      2  O   GLN A   3      20.152   9.163  -5.614  1.00  0.00    -0.273 OA
ATOM      3  N   LEU A   4      20.564   9.921  -7.777  1.00  0.00    -0.343 N 
ATOM      4  H   UNL     1      20.403  10.663  -8.496  1.00  0.00     0.164 HD
ENDROOT
BRANCH   1   5
ATOM      5  CA  GLN A   3      19.341  11.359  -6.137  1.00  0.00     0.171 C 
BRANCH   5   6
ATOM      6  N   GLN A   3      18.089  11.052  -5.495  1.00  0.00    -0.342 N 
ATOM      7  C   PHE A   2      16.887  11.750  -5.772  1.00  0.00     0.243 C 
ATOM      8  O   PHE A   2      16.901  12.792  -6.484  1.00  0.00    -0.273 OA
ATOM      9  H   UNL     1      18.163  10.513  -4.608  1.00  0.00     0.164 HD
BRANCH   7  10
ATOM     10  CA  PHE A   2      15.651  11.313  -5.059  1.00  0.00     0.175 C 
BRANCH  10  11
ATOM     11  N   PHE A   2      14.455  11.739  -5.768  1.00  0.00    -0.343 N 
ATOM     12  C   SER A   1      13.916  13.049  -5.634  1.00  0.00     0.239 C 
ATOM     13  O   SER A   1      14.447  13.867  -4.833  1.00  0.00    -0.273 OA
ATOM     14  H   UNL     1      13.867  11.000  -6.210  1.00  0.00     0.164 HD
BRANCH  12  15
ATOM     15  CA  SER A   1      12.661  13.410  -6.390  1.00  0.00     0.167 C 
BRANCH  15  16
ATOM     16  N   SER A   1      12.454  14.860  -6.401  1.00  0.00    -0.318 NA
ATOM     17  H   UNL     1      13.315  15.336  -6.757  1.00  0.00     0.119 HD
ATOM     18  H   UNL     1      12.284  15.189  -5.423  1.00  0.00     0.119 HD
ENDBRANCH  15  16
BRANCH  15  19
ATOM     19  CB  SER A   1      12.693  12.887  -7.842  1.00  0.00     0.184 C 
BRANCH  19  20
ATOM     20  OG  SER A   1      11.438  13.058  -8.437  1.00  0.00    -0.394 OA
ATOM     21  H   UNL     1      11.539  12.786  -9.386  1.00  0.00     0.210 HD
ENDBRANCH  19  20
ENDBRANCH  15  19
ENDBRANCH  12  15
ENDBRANCH  10  11
BRANCH  10  22
ATOM     22  CB  PHE A   2      15.614   9.773  -4.891  1.00  0.00     0.070 C 
BRANCH  22  23
ATOM     23  CG  PHE A   2      14.444   9.289  -4.090  1.00  0.00    -0.045 A 
ATOM     24  CD1 PHE A   2      13.904  10.046  -3.033  1.00  0.00     0.004 A 
ATOM     25  CD2 PHE A   2      13.969   7.989  -4.310  1.00  0.00     0.004 A 
ATOM     26  CE1 PHE A   2      12.869   9.536  -2.260  1.00  0.00     0.000 A 
ATOM     27  CE2 PHE A   2      12.940   7.477  -3.521  1.00  0.00     0.000 A 
ATOM     28  CZ  PHE A   2      12.386   8.252  -2.502  1.00  0.00     0.000 A 
ENDBRANCH  22  23
ENDBRANCH  10  22
ENDBRANCH   7  10
ENDBRANCH   5   6
BRANCH   5  29
ATOM     29  CB  GLN A   3      20.200  12.249  -5.231  1.00  0.00     0.045 C 
BRANCH  29  30
ATOM     30  CG  GLN A   3      20.419  11.701  -3.803  1.00  0.00     0.102 C 
BRANCH  30  31
ATOM     31  CD  GLN A   3      21.780  12.066  -3.297  1.00  0.00     0.217 C 
ATOM     32  NE2 GLN A   3      22.777  11.061  -3.109  1.00  0.00    -0.370 N 
ATOM     33  OE1 GLN A   3      22.042  13.267  -3.018  1.00  0.00    -0.275 OA
ATOM     34  H   UNL     1      23.690  11.304  -2.665  1.00  0.00     0.159 HD
ATOM     35  H   UNL     1      22.602  10.072  -3.392  1.00  0.00     0.159 HD
ENDBRANCH  30  31
ENDBRANCH  29  30
ENDBRANCH   5  29
ENDBRANCH   1   5
BRANCH   3  36
ATOM     36  CA  LEU A   4      21.349   8.760  -8.142  1.00  0.00     0.171 C 
BRANCH  36  37
ATOM     37  C   LEU A   4      22.713   9.217  -8.521  1.00  0.00     0.243 C 
ATOM     38  N   LYS A   5      23.822   8.728  -7.780  1.00  0.00    -0.343 N 
ATOM     39  O   LEU A   4      22.878  10.032  -9.470  1.00  0.00    -0.273 OA
ATOM     40  H   UNL     1      23.666   8.039  -7.009  1.00  0.00     0.164 HD
BRANCH  38  41
ATOM     41  CA  LYS A   5      25.184   9.129  -8.068  1.00  0.00     0.171 C 
BRANCH  41  42
ATOM     42  C   LYS A   5      25.898   7.973  -8.683  1.00  0.00     0.243 C 
ATOM     43  N   ASN A   6      25.912   7.868 -10.101  1.00  0.00    -0.341 N 
ATOM     44  O   LYS A   5      26.445   7.091  -7.967  1.00  0.00    -0.273 OA
ATOM     45  H   UNL     1      25.488   8.651 -10.649  1.00  0.00     0.164 HD
BRANCH  43  46
ATOM     46  CA  ASN A   6      26.540   6.753 -10.802  1.00  0.00     0.201 C 
BRANCH  46  47
ATOM     47  C   ASN A   6      27.991   6.643 -10.414  1.00  0.00     0.326 C 
ATOM     48  O   ASN A   6      28.794   7.579 -10.677  1.00  0.00    -0.250 OA
BRANCH  47  49
ATOM     49  OXT ASN A   6      28.449   5.501  -9.765  1.00  0.00    -0.480 OA
ATOM     50  H   UNL     1      29.421   5.410  -9.496  1.00  0.00     0.296 HD
ENDBRANCH  47  49
ENDBRANCH  46  47
BRANCH  46  51
ATOM     51  CB  ASN A   6      26.424   6.948 -12.322  1.00  0.00     0.136 C 
BRANCH  51  52
ATOM     52  CG  ASN A   6      25.010   7.181 -12.773  1.00  0.00     0.220 C 
ATOM     53  ND2 ASN A   6      24.753   8.090 -13.833  1.00  0.00    -0.370 N 
ATOM     54  OD1 ASN A   6      24.053   6.558 -12.243  1.00  0.00    -0.275 OA
ATOM     55  H   UNL     1      25.533   8.600 -14.305  1.00  0.00     0.159 HD
ATOM     56  H   UNL     1      23.775   8.257 -14.157  1.00  0.00     0.159 HD
ENDBRANCH  51  52
ENDBRANCH  46  51
ENDBRANCH  43  46
ENDBRANCH  41  42
BRANCH  41  57
ATOM     57  CB  LYS A   5      25.864   9.612  -6.790  1.00  0.00     0.035 C 
BRANCH  57  58
ATOM     58  CG  LYS A   5      25.180  10.869  -6.243  1.00  0.00     0.004 C 
BRANCH  58  59
ATOM     59  CD  LYS A   5      25.893  11.362  -4.981  1.00  0.00     0.015 C 
BRANCH  59  60
ATOM     60  CE  LYS A   5      25.444  12.776  -4.592  1.00  0.00     0.077 C 
BRANCH  60  61
ATOM     61  NZ  LYS A   5      25.974  13.763  -5.529  1.00  0.00    -0.330 NA
ATOM     62  H   UNL     1      25.576  14.694  -5.268  1.00  0.00     0.118 HD
ATOM     63  H   UNL     1      27.008  13.831  -5.382  1.00  0.00     0.118 HD
ENDBRANCH  60  61
ENDBRANCH  59  60
ENDBRANCH  58  59
ENDBRANCH  57  58
ENDBRANCH  41  57
ENDBRANCH  38  41
ENDBRANCH  36  37
BRANCH  36  64
ATOM     64  CB  LEU A   4      20.656   7.999  -9.274  1.00  0.00     0.038 C 
BRANCH  64  65
ATOM     65  CG  LEU A   4      21.449   6.770  -9.769  1.00  0.00    -0.015 C 
ATOM     66  CD1 LEU A   4      21.763   5.779  -8.639  1.00  0.00     0.007 C 
ATOM     67  CD2 LEU A   4      20.662   6.066 -10.878  1.00  0.00     0.007 C 
ENDBRANCH  64  65
ENDBRANCH  36  64
ENDBRANCH   3  36
TORSDOF 29
