REMARK SMILES CC(C)C[C@H](NC(=O)[C@H](Cc1ccccc1)NC(=O)[C@@H](N)CO)C(=O)NCC(=O)N[C@@H](CCCNC(=N)N)C(=O)N[C@@H](CCCCN)C(=O)O
REMARK SMILES IDX 28 1 29 2 30 3 27 5 26 6 24 7 25 8 5 10 6 11 7 12 8 13 9 15
REMARK SMILES IDX 17 16 18 17 19 18 20 20 21 21 22 24 23 25 10 27 11 28 12 29
REMARK SMILES IDX 16 30 13 31 15 32 14 33 4 34 2 35 1 36 3 37 31 38 39 39
REMARK SMILES IDX 41 40 40 41 42 43 48 44 49 45 50 46 43 48 44 49 45 50 46 51
REMARK SMILES IDX 47 52 32 55 33 56 34 57 35 58 36 59 38 60 37 64
REMARK H PARENT 30 4 26 9 6 14 17 19 21 22 21 23 23 26 41 42 50 47 47 53 47 54
REMARK H PARENT 35 61 38 62 38 63 37 65
ROOT
ATOM      1  C   GLY A   4      22.707   9.204  -8.539  1.00  0.00     0.240 C 
ATOM      2  O   GLY A   4      22.886  10.030  -9.475  1.00  0.00    -0.273 OA
ATOM      3  N   ARG A   5      23.806   8.709  -7.786  1.00  0.00    -0.343 N 
ATOM      4  H   UNL     1      23.638   7.992  -7.043  1.00  0.00     0.164 HD
ENDROOT
BRANCH   1   5
ATOM      5  CA  GLY A   4      21.333   8.757  -8.203  1.00  0.00     0.216 C 
BRANCH   5   6
ATOM      6  N   GLY A   4      20.561   9.914  -7.799  1.00  0.00    -0.345 N 
ATOM      7  C   LEU A   3      20.060  10.078  -6.484  1.00  0.00     0.243 C 
ATOM      8  O   LEU A   3      20.180   9.153  -5.634  1.00  0.00    -0.273 OA
ATOM      9  H   UNL     1      20.397  10.662  -8.511  1.00  0.00     0.164 HD
BRANCH   7  10
ATOM     10  CA  LEU A   3      19.343  11.349  -6.148  1.00  0.00     0.171 C 
BRANCH  10  11
ATOM     11  N   LEU A   3      18.085  11.016  -5.540  1.00  0.00    -0.343 N 
ATOM     12  C   PHE A   2      16.888  11.743  -5.776  1.00  0.00     0.243 C 
ATOM     13  O   PHE A   2      16.907  12.795  -6.474  1.00  0.00    -0.273 OA
ATOM     14  H   UNL     1      18.157  10.378  -4.723  1.00  0.00     0.164 HD
BRANCH  12  15
ATOM     15  CA  PHE A   2      15.652  11.312  -5.057  1.00  0.00     0.175 C 
BRANCH  15  16
ATOM     16  N   PHE A   2      14.455  11.739  -5.768  1.00  0.00    -0.343 N 
ATOM     17  C   SER A   1      13.916  13.050  -5.636  1.00  0.00     0.239 C 
ATOM     18  O   SER A   1      14.450  13.869  -4.839  1.00  0.00    -0.273 OA
ATOM     19  H   UNL     1      13.866  11.000  -6.211  1.00  0.00     0.164 HD
BRANCH  17  20
ATOM     20  CA  SER A   1      12.656  13.409  -6.383  1.00  0.00     0.167 C 
BRANCH  20  21
ATOM     21  N   SER A   1      12.468  14.862  -6.382  1.00  0.00    -0.318 NA
ATOM     22  H   UNL     1      11.581  15.086  -6.889  1.00  0.00     0.119 HD
ATOM     23  H   UNL     1      12.305  15.173  -5.396  1.00  0.00     0.119 HD
ENDBRANCH  20  21
BRANCH  20  24
ATOM     24  CB  SER A   1      12.695  12.893  -7.842  1.00  0.00     0.184 C 
BRANCH  24  25
ATOM     25  OG  SER A   1      11.441  13.037  -8.449  1.00  0.00    -0.394 OA
ATOM     26  H   UNL     1      10.855  12.333  -8.065  1.00  0.00     0.210 HD
ENDBRANCH  24  25
ENDBRANCH  20  24
ENDBRANCH  17  20
ENDBRANCH  15  16
BRANCH  15  27
ATOM     27  CB  PHE A   2      15.610   9.773  -4.880  1.00  0.00     0.070 C 
BRANCH  27  28
ATOM     28  CG  PHE A   2      14.435   9.292  -4.092  1.00  0.00    -0.045 A 
ATOM     29  CD1 PHE A   2      13.897  10.048  -3.033  1.00  0.00     0.004 A 
ATOM     30  CD2 PHE A   2      13.964   7.991  -4.310  1.00  0.00     0.004 A 
ATOM     31  CE1 PHE A   2      12.866   9.535  -2.258  1.00  0.00     0.000 A 
ATOM     32  CE2 PHE A   2      12.937   7.477  -3.520  1.00  0.00     0.000 A 
ATOM     33  CZ  PHE A   2      12.384   8.252  -2.500  1.00  0.00     0.000 A 
ENDBRANCH  27  28
ENDBRANCH  15  27
ENDBRANCH  12  15
ENDBRANCH  10  11
BRANCH  10  34
ATOM     34  CB  LEU A   3      20.165  12.249  -5.216  1.00  0.00     0.038 C 
BRANCH  34  35
ATOM     35  CG  LEU A   3      20.417  11.677  -3.792  1.00  0.00    -0.015 C 
ATOM     36  CD1 LEU A   3      21.819  12.065  -3.316  1.00  0.00     0.007 C 
ATOM     37  CD2 LEU A   3      19.368  12.167  -2.782  1.00  0.00     0.007 C 
ENDBRANCH  34  35
ENDBRANCH  10  34
ENDBRANCH   7  10
ENDBRANCH   5   6
ENDBRANCH   1   5
BRANCH   3  38
ATOM     38  CA  ARG A   5      25.174   9.113  -8.065  1.00  0.00     0.171 C 
BRANCH  38  39
ATOM     39  C   ARG A   5      25.896   7.964  -8.681  1.00  0.00     0.243 C 
ATOM     40  N   LYS A   6      25.926   7.876 -10.098  1.00  0.00    -0.341 N 
ATOM     41  O   ARG A   5      26.443   7.081  -7.968  1.00  0.00    -0.273 OA
ATOM     42  H   UNL     1      25.593   8.708 -10.634  1.00  0.00     0.164 HD
BRANCH  40  43
ATOM     43  CA  LYS A   6      26.542   6.761 -10.806  1.00  0.00     0.192 C 
BRANCH  43  44
ATOM     44  C   LYS A   6      27.994   6.646 -10.425  1.00  0.00     0.326 C 
ATOM     45  O   LYS A   6      28.796   7.584 -10.682  1.00  0.00    -0.250 OA
BRANCH  44  46
ATOM     46  OXT LYS A   6      28.454   5.496  -9.792  1.00  0.00    -0.480 OA
ATOM     47  H   UNL     1      29.428   5.401  -9.529  1.00  0.00     0.296 HD
ENDBRANCH  44  46
ENDBRANCH  43  44
BRANCH  43  48
ATOM     48  CB  LYS A   6      26.412   6.964 -12.327  1.00  0.00     0.037 C 
BRANCH  48  49
ATOM     49  CG  LYS A   6      24.964   7.157 -12.825  1.00  0.00     0.004 C 
BRANCH  49  50
ATOM     50  CD  LYS A   6      23.975   6.049 -12.411  1.00  0.00     0.015 C 
BRANCH  50  51
ATOM     51  CE  LYS A   6      24.368   4.648 -12.904  1.00  0.00     0.077 C 
BRANCH  51  52
ATOM     52  NZ  LYS A   6      24.478   4.617 -14.359  1.00  0.00    -0.330 NA
ATOM     53  H   UNL     1      23.520   4.735 -14.763  1.00  0.00     0.118 HD
ATOM     54  H   UNL     1      24.801   3.661 -14.633  1.00  0.00     0.118 HD
ENDBRANCH  51  52
ENDBRANCH  50  51
ENDBRANCH  49  50
ENDBRANCH  48  49
ENDBRANCH  43  48
ENDBRANCH  40  43
ENDBRANCH  38  39
BRANCH  38  55
ATOM     55  CB  ARG A   5      25.851   9.596  -6.788  1.00  0.00     0.037 C 
BRANCH  55  56
ATOM     56  CG  ARG A   5      25.163  10.859  -6.271  1.00  0.00     0.024 C 
BRANCH  56  57
ATOM     57  CD  ARG A   5      25.838  11.391  -5.015  1.00  0.00     0.116 C 
BRANCH  57  58
ATOM     58  NE  ARG A   5      25.377  10.684  -3.823  1.00  0.00    -0.357 N 
ATOM     59  CZ  ARG A   5      25.468  11.279  -2.527  1.00  0.00     0.185 C 
ATOM     60  NH2 ARG A   5      26.105  12.541  -2.350  1.00  0.00    -0.370 N 
ATOM     61  H   UNL     1      24.896   9.760  -3.921  1.00  0.00     0.163 HD
ATOM     62  H   UNL     1      26.081  13.008  -1.416  1.00  0.00     0.159 HD
ATOM     63  H   UNL     1      26.692  12.983  -3.091  1.00  0.00     0.159 HD
BRANCH  59  64
ATOM     64  NH1 ARG A   5      24.956  10.680  -1.499  1.00  0.00    -0.270 NA
ATOM     65  H   UNL     1      24.474   9.757  -1.583  1.00  0.00     0.191 HD
ENDBRANCH  59  64
ENDBRANCH  57  58
ENDBRANCH  56  57
ENDBRANCH  55  56
ENDBRANCH  38  55
ENDBRANCH   3  38
TORSDOF 29
