REMARK SMILES CC(C)C[C@H](NC(=O)[C@H](Cc1ccccc1)NC(=O)[C@@H](N)CO)C(=O)NCC(=O)N[C@@H](CCCNC(=N)N)C(=O)N[C@@H](C)C(=O)O
REMARK SMILES IDX 24 1 25 2 26 3 5 5 6 6 7 7 8 8 9 10 17 11 18 12 19 13 20 15
REMARK SMILES IDX 21 16 22 19 23 20 10 22 11 23 12 24 16 25 13 26 15 27 14 28
REMARK SMILES IDX 4 29 2 30 1 31 3 32 27 33 28 34 30 35 29 36 31 38 39 39
REMARK SMILES IDX 41 40 40 41 42 43 43 44 44 45 45 46 46 47 32 49 33 50 34 51
REMARK SMILES IDX 35 52 36 53 38 54 37 58
REMARK H PARENT 26 4 6 9 17 14 21 17 21 18 23 21 30 37 41 42 46 48 35 55 38 56
REMARK H PARENT 38 57 37 59
ROOT
ATOM      1  C   LEU A   3      20.059  10.079  -6.483  1.00  0.00     0.243 C 
ATOM      2  O   LEU A   3      20.180   9.153  -5.634  1.00  0.00    -0.273 OA
ATOM      3  N   GLY A   4      20.561   9.914  -7.799  1.00  0.00    -0.345 N 
ATOM      4  H   UNL     1      20.395  10.662  -8.511  1.00  0.00     0.164 HD
ENDROOT
BRANCH   1   5
ATOM      5  CA  LEU A   3      19.343  11.349  -6.148  1.00  0.00     0.171 C 
BRANCH   5   6
ATOM      6  N   LEU A   3      18.085  11.016  -5.540  1.00  0.00    -0.343 N 
ATOM      7  C   PHE A   2      16.888  11.743  -5.776  1.00  0.00     0.243 C 
ATOM      8  O   PHE A   2      16.907  12.795  -6.474  1.00  0.00    -0.273 OA
ATOM      9  H   UNL     1      18.157  10.378  -4.723  1.00  0.00     0.164 HD
BRANCH   7  10
ATOM     10  CA  PHE A   2      15.652  11.312  -5.057  1.00  0.00     0.175 C 
BRANCH  10  11
ATOM     11  N   PHE A   2      14.455  11.738  -5.768  1.00  0.00    -0.343 N 
ATOM     12  C   SER A   1      13.914  13.048  -5.637  1.00  0.00     0.239 C 
ATOM     13  O   SER A   1      14.448  13.868  -4.839  1.00  0.00    -0.273 OA
ATOM     14  H   UNL     1      13.867  10.998  -6.210  1.00  0.00     0.164 HD
BRANCH  12  15
ATOM     15  CA  SER A   1      12.655  13.408  -6.387  1.00  0.00     0.167 C 
BRANCH  15  16
ATOM     16  N   SER A   1      12.467  14.861  -6.384  1.00  0.00    -0.318 NA
ATOM     17  H   UNL     1      11.583  15.087  -6.894  1.00  0.00     0.119 HD
ATOM     18  H   UNL     1      12.302  15.171  -5.398  1.00  0.00     0.119 HD
ENDBRANCH  15  16
BRANCH  15  19
ATOM     19  CB  SER A   1      12.699  12.894  -7.844  1.00  0.00     0.184 C 
BRANCH  19  20
ATOM     20  OG  SER A   1      11.440  13.041  -8.440  1.00  0.00    -0.394 OA
ATOM     21  H   UNL     1      11.550  12.779  -9.392  1.00  0.00     0.210 HD
ENDBRANCH  19  20
ENDBRANCH  15  19
ENDBRANCH  12  15
ENDBRANCH  10  11
BRANCH  10  22
ATOM     22  CB  PHE A   2      15.610   9.773  -4.879  1.00  0.00     0.070 C 
BRANCH  22  23
ATOM     23  CG  PHE A   2      14.435   9.292  -4.091  1.00  0.00    -0.045 A 
ATOM     24  CD1 PHE A   2      13.897  10.048  -3.033  1.00  0.00     0.004 A 
ATOM     25  CD2 PHE A   2      13.964   7.991  -4.310  1.00  0.00     0.004 A 
ATOM     26  CE1 PHE A   2      12.865   9.535  -2.258  1.00  0.00     0.000 A 
ATOM     27  CE2 PHE A   2      12.937   7.477  -3.520  1.00  0.00     0.000 A 
ATOM     28  CZ  PHE A   2      12.384   8.252  -2.500  1.00  0.00     0.000 A 
ENDBRANCH  22  23
ENDBRANCH  10  22
ENDBRANCH   7  10
ENDBRANCH   5   6
BRANCH   5  29
ATOM     29  CB  LEU A   3      20.165  12.249  -5.216  1.00  0.00     0.038 C 
BRANCH  29  30
ATOM     30  CG  LEU A   3      20.417  11.677  -3.792  1.00  0.00    -0.015 C 
ATOM     31  CD1 LEU A   3      21.819  12.065  -3.316  1.00  0.00     0.007 C 
ATOM     32  CD2 LEU A   3      19.368  12.167  -2.782  1.00  0.00     0.007 C 
ENDBRANCH  29  30
ENDBRANCH   5  29
ENDBRANCH   1   5
BRANCH   3  33
ATOM     33  CA  GLY A   4      21.333   8.757  -8.203  1.00  0.00     0.216 C 
BRANCH  33  34
ATOM     34  C   GLY A   4      22.707   9.205  -8.540  1.00  0.00     0.240 C 
ATOM     35  N   ARG A   5      23.807   8.709  -7.791  1.00  0.00    -0.343 N 
ATOM     36  O   GLY A   4      22.884  10.032  -9.475  1.00  0.00    -0.273 OA
ATOM     37  H   UNL     1      23.641   7.993  -7.046  1.00  0.00     0.164 HD
BRANCH  35  38
ATOM     38  CA  ARG A   5      25.175   9.112  -8.074  1.00  0.00     0.171 C 
BRANCH  38  39
ATOM     39  C   ARG A   5      25.894   7.961  -8.691  1.00  0.00     0.243 C 
ATOM     40  N   ALA A   6      25.886   7.841 -10.109  1.00  0.00    -0.341 N 
ATOM     41  O   ARG A   5      26.456   7.089  -7.974  1.00  0.00    -0.273 OA
ATOM     42  H   UNL     1      25.375   8.568 -10.662  1.00  0.00     0.164 HD
BRANCH  40  43
ATOM     43  CA  ALA A   6      26.545   6.746 -10.813  1.00  0.00     0.189 C 
ATOM     44  CB  ALA A   6      26.421   6.956 -12.323  1.00  0.00     0.043 C 
BRANCH  43  45
ATOM     45  C   ALA A   6      27.994   6.652 -10.417  1.00  0.00     0.325 C 
ATOM     46  O   ALA A   6      28.791   7.589 -10.686  1.00  0.00    -0.250 OA
BRANCH  45  47
ATOM     47  OXT ALA A   6      28.456   5.520  -9.752  1.00  0.00    -0.480 OA
ATOM     48  H   UNL     1      29.428   5.440  -9.477  1.00  0.00     0.296 HD
ENDBRANCH  45  47
ENDBRANCH  43  45
ENDBRANCH  40  43
ENDBRANCH  38  39
BRANCH  38  49
ATOM     49  CB  ARG A   5      25.853   9.597  -6.795  1.00  0.00     0.037 C 
BRANCH  49  50
ATOM     50  CG  ARG A   5      25.163  10.857  -6.273  1.00  0.00     0.024 C 
BRANCH  50  51
ATOM     51  CD  ARG A   5      25.839  11.389  -5.017  1.00  0.00     0.116 C 
BRANCH  51  52
ATOM     52  NE  ARG A   5      25.377  10.683  -3.824  1.00  0.00    -0.357 N 
ATOM     53  CZ  ARG A   5      25.468  11.279  -2.528  1.00  0.00     0.185 C 
ATOM     54  NH2 ARG A   5      26.105  12.541  -2.351  1.00  0.00    -0.370 N 
ATOM     55  H   UNL     1      24.897   9.759  -3.922  1.00  0.00     0.163 HD
ATOM     56  H   UNL     1      26.082  13.007  -1.417  1.00  0.00     0.159 HD
ATOM     57  H   UNL     1      26.691  12.983  -3.093  1.00  0.00     0.159 HD
BRANCH  53  58
ATOM     58  NH1 ARG A   5      24.957  10.680  -1.500  1.00  0.00    -0.270 NA
ATOM     59  H   UNL     1      24.474   9.757  -1.584  1.00  0.00     0.191 HD
ENDBRANCH  53  58
ENDBRANCH  51  52
ENDBRANCH  50  51
ENDBRANCH  49  50
ENDBRANCH  38  49
ENDBRANCH  35  38
ENDBRANCH  33  34
ENDBRANCH   3  33
TORSDOF 24
