REMARK SMILES CC(C)C[C@H](NC(=O)CNC(=O)[C@H](CCCNC(=N)N)NC(=O)[C@@H](N)CO)C(=O)N[C@@H](CCCNC(=N)N)C(=O)N[C@@H](CC(N)=O)C(=O)O
REMARK SMILES IDX 7 1 8 2 6 3 9 5 10 6 11 7 12 8 13 10 21 11 22 12 23 13 24 15
REMARK SMILES IDX 25 16 26 19 27 20 14 22 15 23 16 24 17 25 18 26 20 27 19 31
REMARK SMILES IDX 5 33 28 34 30 35 29 36 31 38 39 39 41 40 40 41 42 43 47 44
REMARK SMILES IDX 48 45 49 46 43 48 44 49 45 50 46 51 32 54 33 55 34 56 35 57
REMARK SMILES IDX 36 58 38 59 37 63 4 65 2 66 1 67 3 68
REMARK H PARENT 6 4 10 9 21 14 25 17 25 18 27 21 17 28 20 29 20 30 19 32 30 37
REMARK H PARENT 41 42 49 47 45 52 45 53 35 60 38 61 38 62 37 64
ROOT
ATOM      1  C   GLY A   3       1.020   1.219   2.064  1.00  0.00     0.240 C 
ATOM      2  O   GLY A   3       0.726   2.445   2.081  1.00  0.00    -0.273 OA
ATOM      3  N   LEU A   4       0.134   0.266   1.465  1.00  0.00    -0.343 N 
ATOM      4  H   UNL     1       0.389  -0.747   1.513  1.00  0.00     0.164 HD
ENDROOT
BRANCH   1   5
ATOM      5  CA  GLY A   3       2.330   0.770   2.638  1.00  0.00     0.216 C 
BRANCH   5   6
ATOM      6  N   GLY A   3       3.421   1.101   1.725  1.00  0.00    -0.345 N 
ATOM      7  C   ARG A   2       3.597   0.442   0.461  1.00  0.00     0.243 C 
ATOM      8  O   ARG A   2       2.782  -0.449   0.097  1.00  0.00    -0.273 OA
ATOM      9  H   UNL     1       4.105   1.837   2.015  1.00  0.00     0.164 HD
BRANCH   7  10
ATOM     10  CA  ARG A   2       4.743   0.853  -0.435  1.00  0.00     0.171 C 
BRANCH  10  11
ATOM     11  N   ARG A   2       6.026   0.646   0.247  1.00  0.00    -0.343 N 
ATOM     12  C   SER A   1       7.225   1.340  -0.130  1.00  0.00     0.239 C 
ATOM     13  O   SER A   1       7.225   2.108  -1.131  1.00  0.00    -0.273 OA
ATOM     14  H   UNL     1       6.054   0.046   1.103  1.00  0.00     0.164 HD
BRANCH  12  15
ATOM     15  CA  SER A   1       8.489   1.165   0.681  1.00  0.00     0.167 C 
BRANCH  15  16
ATOM     16  N   SER A   1       9.625   0.822  -0.178  1.00  0.00    -0.318 NA
ATOM     17  H   UNL     1       9.722   1.532  -0.940  1.00  0.00     0.119 HD
ATOM     18  H   UNL     1       9.425  -0.092  -0.647  1.00  0.00     0.119 HD
ENDBRANCH  15  16
BRANCH  15  19
ATOM     19  CB  SER A   1       8.794   2.422   1.509  1.00  0.00     0.184 C 
BRANCH  19  20
ATOM     20  OG  SER A   1       9.115   3.507   0.676  1.00  0.00    -0.394 OA
ATOM     21  H   UNL     1       8.312   4.086   0.623  1.00  0.00     0.210 HD
ENDBRANCH  19  20
ENDBRANCH  15  19
ENDBRANCH  12  15
ENDBRANCH  10  11
BRANCH  10  22
ATOM     22  CB  ARG A   2       4.718   0.201  -1.845  1.00  0.00     0.037 C 
BRANCH  22  23
ATOM     23  CG  ARG A   2       4.921  -1.330  -1.928  1.00  0.00     0.024 C 
BRANCH  23  24
ATOM     24  CD  ARG A   2       6.365  -1.798  -1.669  1.00  0.00     0.116 C 
BRANCH  24  25
ATOM     25  NE  ARG A   2       6.547  -2.241  -0.284  1.00  0.00    -0.357 N 
ATOM     26  CZ  ARG A   2       7.810  -2.711   0.204  1.00  0.00     0.185 C 
ATOM     27  NH2 ARG A   2       7.939  -3.092   1.578  1.00  0.00    -0.370 N 
ATOM     28  H   UNL     1       5.739  -2.228   0.382  1.00  0.00     0.163 HD
ATOM     29  H   UNL     1       8.864  -3.401   1.960  1.00  0.00     0.159 HD
ATOM     30  H   UNL     1       7.113  -3.063   2.215  1.00  0.00     0.159 HD
BRANCH  26  31
ATOM     31  NH1 ARG A   2       8.831  -2.792  -0.590  1.00  0.00    -0.270 NA
ATOM     32  H   UNL     1       9.760  -3.134  -0.256  1.00  0.00     0.191 HD
ENDBRANCH  26  31
ENDBRANCH  24  25
ENDBRANCH  23  24
ENDBRANCH  22  23
ENDBRANCH  10  22
ENDBRANCH   7  10
ENDBRANCH   5   6
ENDBRANCH   1   5
BRANCH   3  33
ATOM     33  CA  LEU A   4      -1.031   0.643   0.658  1.00  0.00     0.171 C 
BRANCH  33  34
ATOM     34  C   LEU A   4      -2.262  -0.042   1.198  1.00  0.00     0.243 C 
ATOM     35  N   ARG A   5      -3.532   0.622   1.141  1.00  0.00    -0.343 N 
ATOM     36  O   LEU A   4      -2.184  -1.221   1.640  1.00  0.00    -0.273 OA
ATOM     37  H   UNL     1      -3.547   1.630   0.860  1.00  0.00     0.164 HD
BRANCH  35  38
ATOM     38  CA  ARG A   5      -4.789  -0.032   1.529  1.00  0.00     0.171 C 
BRANCH  38  39
ATOM     39  C   ARG A   5      -5.015  -1.300   0.740  1.00  0.00     0.243 C 
ATOM     40  N   ASN A   6      -5.625  -2.438   1.370  1.00  0.00    -0.341 N 
ATOM     41  O   ARG A   5      -4.678  -1.346  -0.475  1.00  0.00    -0.273 OA
ATOM     42  H   UNL     1      -5.876  -2.371   2.380  1.00  0.00     0.164 HD
BRANCH  40  43
ATOM     43  CA  ASN A   6      -5.865  -3.719   0.695  1.00  0.00     0.201 C 
BRANCH  43  44
ATOM     44  C   ASN A   6      -4.552  -4.322   0.257  1.00  0.00     0.326 C 
ATOM     45  O   ASN A   6      -3.850  -4.958   1.089  1.00  0.00    -0.250 OA
BRANCH  44  46
ATOM     46  OXT ASN A   6      -4.084  -4.143  -1.040  1.00  0.00    -0.480 OA
ATOM     47  H   UNL     1      -3.196  -4.536  -1.332  1.00  0.00     0.296 HD
ENDBRANCH  44  46
ENDBRANCH  43  44
BRANCH  43  48
ATOM     48  CB  ASN A   6      -6.878  -3.541  -0.463  1.00  0.00     0.136 C 
BRANCH  48  49
ATOM     49  CG  ASN A   6      -7.445  -4.854  -0.929  1.00  0.00     0.220 C 
ATOM     50  ND2 ASN A   6      -8.860  -5.037  -1.018  1.00  0.00    -0.370 N 
ATOM     51  OD1 ASN A   6      -6.672  -5.790  -1.280  1.00  0.00    -0.275 OA
ATOM     52  H   UNL     1      -9.519  -4.263  -0.768  1.00  0.00     0.159 HD
ATOM     53  H   UNL     1      -9.247  -5.934  -1.388  1.00  0.00     0.159 HD
ENDBRANCH  48  49
ENDBRANCH  43  48
ENDBRANCH  40  43
ENDBRANCH  38  39
BRANCH  38  54
ATOM     54  CB  ARG A   5      -5.984   0.934   1.380  1.00  0.00     0.037 C 
BRANCH  54  55
ATOM     55  CG  ARG A   5      -6.273   1.329  -0.083  1.00  0.00     0.024 C 
BRANCH  55  56
ATOM     56  CD  ARG A   5      -7.260   2.500  -0.184  1.00  0.00     0.116 C 
BRANCH  56  57
ATOM     57  NE  ARG A   5      -6.714   3.714   0.428  1.00  0.00    -0.357 N 
ATOM     58  CZ  ARG A   5      -5.637   4.472  -0.144  1.00  0.00     0.185 C 
ATOM     59  NH2 ARG A   5      -5.134   5.617   0.550  1.00  0.00    -0.370 N 
ATOM     60  H   UNL     1      -7.169   4.074   1.297  1.00  0.00     0.163 HD
ATOM     61  H   UNL     1      -5.532   5.884   1.480  1.00  0.00     0.159 HD
ATOM     62  H   UNL     1      -4.361   6.192   0.146  1.00  0.00     0.159 HD
BRANCH  58  63
ATOM     63  NH1 ARG A   5      -5.129   4.132  -1.289  1.00  0.00    -0.270 NA
ATOM     64  H   UNL     1      -4.346   4.671  -1.723  1.00  0.00     0.191 HD
ENDBRANCH  58  63
ENDBRANCH  56  57
ENDBRANCH  55  56
ENDBRANCH  54  55
ENDBRANCH  38  54
ENDBRANCH  35  38
ENDBRANCH  33  34
BRANCH  33  65
ATOM     65  CB  LEU A   4      -0.779   0.253  -0.814  1.00  0.00     0.038 C 
BRANCH  65  66
ATOM     66  CG  LEU A   4      -1.868   0.738  -1.806  1.00  0.00    -0.015 C 
ATOM     67  CD1 LEU A   4      -1.664   0.071  -3.172  1.00  0.00     0.007 C 
ATOM     68  CD2 LEU A   4      -1.858   2.267  -1.969  1.00  0.00     0.007 C 
ENDBRANCH  65  66
ENDBRANCH  33  65
ENDBRANCH   3  33
TORSDOF 29
