REMARK SMILES CC(C)C[C@H](NC(=O)[C@@H](NC(=O)[C@@H](N)CO)C(C)C)C(=O)N[C@@H](CCC(N)=O)C(=O)N[C@@H](CCCNC(=N)N)C(=O)N[C@@H](CC(N)=O)C(=O)O
REMARK SMILES IDX 20 1 21 2 22 3 5 5 6 6 7 7 8 8 9 10 10 11 11 12 12 13 13 15
REMARK SMILES IDX 14 16 15 19 16 20 17 22 18 23 19 24 4 25 2 26 1 27 3 28
REMARK SMILES IDX 23 29 29 30 31 31 30 32 32 34 40 35 42 36 41 37 43 39 48 40
REMARK SMILES IDX 49 41 50 42 44 44 45 45 46 46 47 47 33 50 34 51 35 52 36 53
REMARK SMILES IDX 37 54 39 55 38 59 24 61 25 62 26 63 27 64 28 65
REMARK H PARENT 22 4 6 9 10 14 14 17 14 18 16 21 31 33 42 38 50 43 46 48 46 49
REMARK H PARENT 36 56 39 57 39 58 38 60 27 66 27 67
ROOT
ATOM      1  C   LEU A   3      20.041  10.091  -6.471  1.00  0.00     0.243 C 
ATOM      2  O   LEU A   3      20.152   9.168  -5.617  1.00  0.00    -0.273 OA
ATOM      3  N   GLN A   4      20.561   9.921  -7.780  1.00  0.00    -0.343 N 
ATOM      4  H   UNL     1      20.397  10.662  -8.500  1.00  0.00     0.164 HD
ENDROOT
BRANCH   1   5
ATOM      5  CA  LEU A   3      19.339  11.369  -6.138  1.00  0.00     0.171 C 
BRANCH   5   6
ATOM      6  N   LEU A   3      18.092  11.058  -5.498  1.00  0.00    -0.343 N 
ATOM      7  C   VAL A   2      16.876  11.721  -5.762  1.00  0.00     0.243 C 
ATOM      8  O   VAL A   2      16.873  12.771  -6.465  1.00  0.00    -0.273 OA
ATOM      9  H   UNL     1      18.192  10.590  -4.582  1.00  0.00     0.164 HD
BRANCH   7  10
ATOM     10  CA  VAL A   2      15.638  11.231  -5.058  1.00  0.00     0.173 C 
BRANCH  10  11
ATOM     11  N   VAL A   2      14.456  11.728  -5.763  1.00  0.00    -0.343 N 
ATOM     12  C   SER A   1      13.928  13.042  -5.626  1.00  0.00     0.239 C 
ATOM     13  O   SER A   1      14.462  13.854  -4.822  1.00  0.00    -0.273 OA
ATOM     14  H   UNL     1      13.878  11.029  -6.274  1.00  0.00     0.164 HD
BRANCH  12  15
ATOM     15  CA  SER A   1      12.670  13.413  -6.384  1.00  0.00     0.167 C 
BRANCH  15  16
ATOM     16  N   SER A   1      12.465  14.862  -6.387  1.00  0.00    -0.318 NA
ATOM     17  H   UNL     1      12.300  15.186  -5.406  1.00  0.00     0.119 HD
ATOM     18  H   UNL     1      13.327  15.338  -6.743  1.00  0.00     0.119 HD
ENDBRANCH  15  16
BRANCH  15  19
ATOM     19  CB  SER A   1      12.693  12.899  -7.844  1.00  0.00     0.184 C 
BRANCH  19  20
ATOM     20  OG  SER A   1      11.436  13.057  -8.439  1.00  0.00    -0.394 OA
ATOM     21  H   UNL     1      11.375  14.003  -8.734  1.00  0.00     0.210 HD
ENDBRANCH  19  20
ENDBRANCH  15  19
ENDBRANCH  12  15
ENDBRANCH  10  11
BRANCH  10  22
ATOM     22  CB  VAL A   2      15.504   9.657  -4.973  1.00  0.00     0.015 C 
ATOM     23  CG1 VAL A   2      14.335   9.302  -4.054  1.00  0.00     0.010 C 
ATOM     24  CG2 VAL A   2      16.670   8.754  -4.517  1.00  0.00     0.010 C 
ENDBRANCH  10  22
ENDBRANCH   7  10
ENDBRANCH   5   6
BRANCH   5  25
ATOM     25  CB  LEU A   3      20.180  12.263  -5.217  1.00  0.00     0.038 C 
BRANCH  25  26
ATOM     26  CG  LEU A   3      20.426  11.694  -3.787  1.00  0.00    -0.015 C 
ATOM     27  CD1 LEU A   3      21.835  12.058  -3.320  1.00  0.00     0.007 C 
ATOM     28  CD2 LEU A   3      19.395  12.207  -2.766  1.00  0.00     0.007 C 
ENDBRANCH  25  26
ENDBRANCH   5  25
ENDBRANCH   1   5
BRANCH   3  29
ATOM     29  CA  GLN A   4      21.346   8.758  -8.146  1.00  0.00     0.171 C 
BRANCH  29  30
ATOM     30  C   GLN A   4      22.712   9.214  -8.523  1.00  0.00     0.243 C 
ATOM     31  N   ARG A   5      23.820   8.713  -7.790  1.00  0.00    -0.343 N 
ATOM     32  O   GLN A   4      22.877  10.034  -9.467  1.00  0.00    -0.273 OA
ATOM     33  H   UNL     1      23.665   7.995  -7.046  1.00  0.00     0.164 HD
BRANCH  31  34
ATOM     34  CA  ARG A   5      25.184   9.120  -8.072  1.00  0.00     0.171 C 
BRANCH  34  35
ATOM     35  C   ARG A   5      25.902   7.969  -8.686  1.00  0.00     0.243 C 
ATOM     36  N   ASN A   6      25.914   7.865 -10.102  1.00  0.00    -0.341 N 
ATOM     37  O   ARG A   5      26.450   7.088  -7.969  1.00  0.00    -0.273 OA
ATOM     38  H   UNL     1      25.488   8.647 -10.651  1.00  0.00     0.164 HD
BRANCH  36  39
ATOM     39  CA  ASN A   6      26.542   6.751 -10.804  1.00  0.00     0.201 C 
BRANCH  39  40
ATOM     40  C   ASN A   6      27.993   6.642 -10.416  1.00  0.00     0.326 C 
ATOM     41  O   ASN A   6      28.794   7.579 -10.677  1.00  0.00    -0.250 OA
BRANCH  40  42
ATOM     42  OXT ASN A   6      28.451   5.499  -9.768  1.00  0.00    -0.480 OA
ATOM     43  H   UNL     1      29.424   5.409  -9.499  1.00  0.00     0.296 HD
ENDBRANCH  40  42
ENDBRANCH  39  40
BRANCH  39  44
ATOM     44  CB  ASN A   6      26.425   6.947 -12.323  1.00  0.00     0.136 C 
BRANCH  44  45
ATOM     45  CG  ASN A   6      25.011   7.181 -12.773  1.00  0.00     0.220 C 
ATOM     46  ND2 ASN A   6      24.754   8.090 -13.833  1.00  0.00    -0.370 N 
ATOM     47  OD1 ASN A   6      24.054   6.558 -12.243  1.00  0.00    -0.275 OA
ATOM     48  H   UNL     1      23.775   8.258 -14.157  1.00  0.00     0.159 HD
ATOM     49  H   UNL     1      25.533   8.600 -14.306  1.00  0.00     0.159 HD
ENDBRANCH  44  45
ENDBRANCH  39  44
ENDBRANCH  36  39
ENDBRANCH  34  35
BRANCH  34  50
ATOM     50  CB  ARG A   5      25.858   9.602  -6.793  1.00  0.00     0.037 C 
BRANCH  50  51
ATOM     51  CG  ARG A   5      25.163  10.858  -6.270  1.00  0.00     0.024 C 
BRANCH  51  52
ATOM     52  CD  ARG A   5      25.838  11.390  -5.014  1.00  0.00     0.116 C 
BRANCH  52  53
ATOM     53  NE  ARG A   5      25.378  10.686  -3.820  1.00  0.00    -0.357 N 
ATOM     54  CZ  ARG A   5      25.469  11.281  -2.526  1.00  0.00     0.185 C 
ATOM     55  NH2 ARG A   5      26.107  12.546  -2.352  1.00  0.00    -0.370 N 
ATOM     56  H   UNL     1      24.895   9.762  -3.911  1.00  0.00     0.163 HD
ATOM     57  H   UNL     1      26.080  13.024  -1.424  1.00  0.00     0.159 HD
ATOM     58  H   UNL     1      26.697  12.982  -3.093  1.00  0.00     0.159 HD
BRANCH  54  59
ATOM     59  NH1 ARG A   5      24.954  10.672  -1.507  1.00  0.00    -0.270 NA
ATOM     60  H   UNL     1      24.995  11.077  -0.545  1.00  0.00     0.191 HD
ENDBRANCH  54  59
ENDBRANCH  52  53
ENDBRANCH  51  52
ENDBRANCH  50  51
ENDBRANCH  34  50
ENDBRANCH  31  34
ENDBRANCH  29  30
BRANCH  29  61
ATOM     61  CB  GLN A   4      20.655   7.995  -9.281  1.00  0.00     0.045 C 
BRANCH  61  62
ATOM     62  CG  GLN A   4      21.450   6.769  -9.761  1.00  0.00     0.102 C 
BRANCH  62  63
ATOM     63  CD  GLN A   4      21.757   5.808  -8.645  1.00  0.00     0.217 C 
ATOM     64  NE2 GLN A   4      23.105   5.441  -8.353  1.00  0.00    -0.370 N 
ATOM     65  OE1 GLN A   4      20.816   5.303  -7.977  1.00  0.00    -0.275 OA
ATOM     66  H   UNL     1      23.897   5.818  -8.919  1.00  0.00     0.159 HD
ATOM     67  H   UNL     1      23.314   4.782  -7.571  1.00  0.00     0.159 HD
ENDBRANCH  62  63
ENDBRANCH  61  62
ENDBRANCH  29  61
ENDBRANCH   3  29
TORSDOF 28
