REMARK SMILES CC(C)C[C@H](NC(=O)[C@H](CC(N)=O)NC(=O)[C@H](Cc1ccccc1)NC(=O)CN)C(=O)N[C@@H](CCCNC(=N)N)C(=O)N[C@@H](CC(N)=O)C(=O)O
REMARK SMILES IDX 5 1 6 2 7 3 8 4 9 6 14 7 15 8 16 9 17 11 25 12 26 13 27 14
REMARK SMILES IDX 28 16 29 17 18 20 19 21 20 22 24 23 21 24 23 25 22 26 10 27
REMARK SMILES IDX 11 28 12 29 13 30 30 33 32 34 31 35 33 37 41 38 43 39 42 40
REMARK SMILES IDX 44 42 49 43 50 44 51 45 45 47 46 48 47 49 48 50 34 53 35 54
REMARK SMILES IDX 36 55 37 56 38 57 40 58 39 62 4 64 2 65 1 66 3 67
REMARK H PARENT 6 5 14 10 25 15 29 18 29 19 12 31 12 32 32 36 43 41 51 46
REMARK H PARENT 47 51 47 52 37 59 40 60 40 61 39 63
ROOT
ATOM      1  CA  LEU A   4       0.719  -1.648  -1.247  1.00  0.00     0.171 C 
ENDROOT
BRANCH   1   2
ATOM      2  N   LEU A   4      -0.699  -1.748  -0.893  1.00  0.00    -0.342 N 
ATOM      3  C   ASN A   3      -1.557  -0.612  -0.707  1.00  0.00     0.243 C 
ATOM      4  O   ASN A   3      -1.060   0.535  -0.515  1.00  0.00    -0.273 OA
ATOM      5  H   UNL     1      -1.118  -2.707  -0.845  1.00  0.00     0.164 HD
BRANCH   3   6
ATOM      6  CA  ASN A   3      -3.057  -0.776  -0.819  1.00  0.00     0.180 C 
BRANCH   6   7
ATOM      7  N   ASN A   3      -3.752  -0.043   0.249  1.00  0.00    -0.342 N 
ATOM      8  C   PHE A   2      -5.120  -0.307   0.598  1.00  0.00     0.243 C 
ATOM      9  O   PHE A   2      -5.750  -1.224   0.008  1.00  0.00    -0.273 OA
ATOM     10  H   UNL     1      -3.252   0.709   0.771  1.00  0.00     0.164 HD
BRANCH   8  11
ATOM     11  CA  PHE A   2      -5.798   0.533   1.658  1.00  0.00     0.175 C 
BRANCH  11  12
ATOM     12  N   PHE A   2      -5.804   1.941   1.252  1.00  0.00    -0.343 N 
ATOM     13  C   GLY A   1      -6.458   2.436   0.071  1.00  0.00     0.234 C 
ATOM     14  O   GLY A   1      -7.057   1.649  -0.710  1.00  0.00    -0.274 OA
ATOM     15  H   UNL     1      -5.270   2.617   1.844  1.00  0.00     0.164 HD
BRANCH  13  16
ATOM     16  CA  GLY A   1      -6.400   3.899  -0.265  1.00  0.00     0.178 C 
BRANCH  16  17
ATOM     17  N   GLY A   1      -7.076   4.712   0.744  1.00  0.00    -0.322 NA
ATOM     18  H   UNL     1      -8.016   4.298   0.954  1.00  0.00     0.119 HD
ATOM     19  H   UNL     1      -6.509   4.672   1.626  1.00  0.00     0.119 HD
ENDBRANCH  16  17
ENDBRANCH  13  16
ENDBRANCH  11  12
BRANCH  11  20
ATOM     20  CB  PHE A   2      -7.232   0.076   2.014  1.00  0.00     0.070 C 
BRANCH  20  21
ATOM     21  CG  PHE A   2      -7.257  -1.252   2.730  1.00  0.00    -0.045 A 
ATOM     22  CD1 PHE A   2      -6.808  -1.347   4.060  1.00  0.00     0.004 A 
ATOM     23  CD2 PHE A   2      -7.750  -2.402   2.090  1.00  0.00     0.004 A 
ATOM     24  CE1 PHE A   2      -6.836  -2.573   4.731  1.00  0.00     0.000 A 
ATOM     25  CE2 PHE A   2      -7.775  -3.627   2.764  1.00  0.00     0.000 A 
ATOM     26  CZ  PHE A   2      -7.316  -3.712   4.082  1.00  0.00     0.000 A 
ENDBRANCH  20  21
ENDBRANCH  11  20
ENDBRANCH   8  11
ENDBRANCH   6   7
BRANCH   6  27
ATOM     27  CB  ASN A   3      -3.555  -0.350  -2.214  1.00  0.00     0.134 C 
BRANCH  27  28
ATOM     28  CG  ASN A   3      -3.324   1.109  -2.501  1.00  0.00     0.220 C 
ATOM     29  ND2 ASN A   3      -2.213   1.525  -3.299  1.00  0.00    -0.370 N 
ATOM     30  OD1 ASN A   3      -4.102   1.973  -2.021  1.00  0.00    -0.275 OA
ATOM     31  H   UNL     1      -2.056   2.534  -3.496  1.00  0.00     0.159 HD
ATOM     32  H   UNL     1      -1.555   0.828  -3.710  1.00  0.00     0.159 HD
ENDBRANCH  27  28
ENDBRANCH   6  27
ENDBRANCH   3   6
ENDBRANCH   1   2
BRANCH   1  33
ATOM     33  C   LEU A   4       1.507  -1.048  -0.100  1.00  0.00     0.243 C 
ATOM     34  N   ARG A   5       2.210   0.203  -0.212  1.00  0.00    -0.343 N 
ATOM     35  O   LEU A   4       1.555  -1.696   0.980  1.00  0.00    -0.273 OA
ATOM     36  H   UNL     1       1.908   0.892  -0.938  1.00  0.00     0.164 HD
BRANCH  34  37
ATOM     37  CA  ARG A   5       3.434   0.525   0.538  1.00  0.00     0.171 C 
BRANCH  37  38
ATOM     38  C   ARG A   5       4.444  -0.590   0.393  1.00  0.00     0.243 C 
ATOM     39  N   ASN A   6       5.414  -0.545  -0.663  1.00  0.00    -0.341 N 
ATOM     40  O   ARG A   5       4.396  -1.586   1.166  1.00  0.00    -0.273 OA
ATOM     41  H   UNL     1       5.381   0.259  -1.331  1.00  0.00     0.164 HD
BRANCH  39  42
ATOM     42  CA  ASN A   6       6.298  -1.670  -0.974  1.00  0.00     0.201 C 
BRANCH  42  43
ATOM     43  C   ASN A   6       7.626  -1.148  -1.454  1.00  0.00     0.326 C 
ATOM     44  O   ASN A   6       7.714  -0.530  -2.548  1.00  0.00    -0.250 OA
BRANCH  43  45
ATOM     45  OXT ASN A   6       8.762  -1.339  -0.670  1.00  0.00    -0.480 OA
ATOM     46  H   UNL     1       9.664  -0.990  -0.967  1.00  0.00     0.296 HD
ENDBRANCH  43  45
ENDBRANCH  42  43
BRANCH  42  47
ATOM     47  CB  ASN A   6       5.627  -2.572  -2.024  1.00  0.00     0.136 C 
BRANCH  47  48
ATOM     48  CG  ASN A   6       6.432  -3.812  -2.292  1.00  0.00     0.220 C 
ATOM     49  ND2 ASN A   6       6.269  -4.971  -1.474  1.00  0.00    -0.370 N 
ATOM     50  OD1 ASN A   6       7.266  -3.829  -3.234  1.00  0.00    -0.275 OA
ATOM     51  H   UNL     1       6.830  -5.834  -1.660  1.00  0.00     0.159 HD
ATOM     52  H   UNL     1       5.584  -4.973  -0.685  1.00  0.00     0.159 HD
ENDBRANCH  47  48
ENDBRANCH  42  47
ENDBRANCH  39  42
ENDBRANCH  37  38
BRANCH  37  53
ATOM     53  CB  ARG A   5       3.107   0.869   2.014  1.00  0.00     0.037 C 
BRANCH  53  54
ATOM     54  CG  ARG A   5       4.343   1.227   2.865  1.00  0.00     0.024 C 
BRANCH  54  55
ATOM     55  CD  ARG A   5       5.027   2.541   2.467  1.00  0.00     0.116 C 
BRANCH  55  56
ATOM     56  NE  ARG A   5       4.221   3.710   2.825  1.00  0.00    -0.357 N 
ATOM     57  CZ  ARG A   5       4.705   5.060   2.709  1.00  0.00     0.185 C 
ATOM     58  NH2 ARG A   5       3.992   6.116   3.347  1.00  0.00    -0.370 N 
ATOM     59  H   UNL     1       3.293   3.568   3.280  1.00  0.00     0.163 HD
ATOM     60  H   UNL     1       4.324   7.103   3.269  1.00  0.00     0.159 HD
ATOM     61  H   UNL     1       3.130   5.921   3.906  1.00  0.00     0.159 HD
BRANCH  57  62
ATOM     62  NH1 ARG A   5       5.776   5.342   2.035  1.00  0.00    -0.270 NA
ATOM     63  H   UNL     1       6.349   4.623   1.544  1.00  0.00     0.191 HD
ENDBRANCH  57  62
ENDBRANCH  55  56
ENDBRANCH  54  55
ENDBRANCH  53  54
ENDBRANCH  37  53
ENDBRANCH  34  37
ENDBRANCH   1  33
BRANCH   1  64
ATOM     64  CB  LEU A   4       0.888  -0.954  -2.622  1.00  0.00     0.038 C 
BRANCH  64  65
ATOM     65  CG  LEU A   4       2.313  -1.110  -3.215  1.00  0.00    -0.015 C 
ATOM     66  CD1 LEU A   4       2.617   0.027  -4.199  1.00  0.00     0.007 C 
ATOM     67  CD2 LEU A   4       2.472  -2.472  -3.919  1.00  0.00     0.007 C 
ENDBRANCH  64  65
ENDBRANCH   1  64
TORSDOF 26
