REMARK SMILES C[C@H](NC(=O)[C@H](Cc1ccccc1)NC(=O)[C@@H](N)CO)C(=O)N[C@@H](CCCNC(=N)N)C(=O)N[C@@H](CCCNC(=N)N)C(=O)N[C@@H](CC(N)=O)C(=O)O
REMARK SMILES IDX 21 1 22 2 23 3 2 5 1 6 3 7 4 8 5 9 6 11 14 12 15 13 16 14
REMARK SMILES IDX 17 16 18 17 19 20 20 21 7 23 8 24 9 25 13 26 10 27 12 28
REMARK SMILES IDX 11 29 24 30 32 31 34 32 33 33 35 35 43 36 45 37 44 38 46 40
REMARK SMILES IDX 51 41 52 42 53 43 47 45 48 46 49 47 50 48 36 51 37 52 38 53
REMARK SMILES IDX 39 54 40 55 42 56 41 60 25 62 26 63 27 64 28 65 29 66 31 67
REMARK SMILES IDX 30 71
REMARK H PARENT 23 4 3 10 14 15 18 18 18 19 20 22 34 34 45 39 53 44 49 49
REMARK H PARENT 49 50 39 57 42 58 42 59 41 61 28 68 31 69 31 70 30 72
ROOT
ATOM      1  C   ALA A   3      -1.500   2.176  -0.626  1.00  0.00     0.242 C 
ATOM      2  O   ALA A   3      -1.753   2.059  -1.854  1.00  0.00    -0.273 OA
ATOM      3  N   ARG A   4      -0.208   1.786  -0.121  1.00  0.00    -0.343 N 
ATOM      4  H   UNL     1      -0.026   1.854   0.903  1.00  0.00     0.164 HD
ENDROOT
BRANCH   1   5
ATOM      5  CA  ALA A   3      -2.587   2.708   0.281  1.00  0.00     0.168 C 
ATOM      6  CB  ALA A   3      -2.048   3.419   1.526  1.00  0.00     0.041 C 
BRANCH   5   7
ATOM      7  N   ALA A   3      -3.492   1.626   0.673  1.00  0.00    -0.343 N 
ATOM      8  C   PHE A   2      -4.855   1.878   1.054  1.00  0.00     0.243 C 
ATOM      9  O   PHE A   2      -5.281   3.064   1.128  1.00  0.00    -0.273 OA
ATOM     10  H   UNL     1      -3.122   0.648   0.716  1.00  0.00     0.164 HD
BRANCH   8  11
ATOM     11  CA  PHE A   2      -5.802   0.744   1.345  1.00  0.00     0.175 C 
BRANCH  11  12
ATOM     12  N   PHE A   2      -5.950  -0.094   0.151  1.00  0.00    -0.343 N 
ATOM     13  C   SER A   1      -7.226  -0.519  -0.351  1.00  0.00     0.239 C 
ATOM     14  O   SER A   1      -8.290  -0.155   0.221  1.00  0.00    -0.273 OA
ATOM     15  H   UNL     1      -5.087  -0.480  -0.294  1.00  0.00     0.164 HD
BRANCH  13  16
ATOM     16  CA  SER A   1      -7.305  -1.410  -1.566  1.00  0.00     0.167 C 
BRANCH  16  17
ATOM     17  N   SER A   1      -7.910  -2.702  -1.226  1.00  0.00    -0.318 NA
ATOM     18  H   UNL     1      -7.314  -3.171  -0.505  1.00  0.00     0.119 HD
ATOM     19  H   UNL     1      -8.855  -2.548  -0.802  1.00  0.00     0.119 HD
ENDBRANCH  16  17
BRANCH  16  20
ATOM     20  CB  SER A   1      -8.098  -0.726  -2.686  1.00  0.00     0.184 C 
BRANCH  20  21
ATOM     21  OG  SER A   1      -8.085  -1.532  -3.830  1.00  0.00    -0.394 OA
ATOM     22  H   UNL     1      -8.556  -1.019  -4.536  1.00  0.00     0.210 HD
ENDBRANCH  20  21
ENDBRANCH  16  20
ENDBRANCH  13  16
ENDBRANCH  11  12
BRANCH  11  23
ATOM     23  CB  PHE A   2      -5.315  -0.098   2.534  1.00  0.00     0.070 C 
BRANCH  23  24
ATOM     24  CG  PHE A   2      -6.371  -1.085   2.959  1.00  0.00    -0.045 A 
ATOM     25  CD1 PHE A   2      -6.394  -2.381   2.417  1.00  0.00     0.004 A 
ATOM     26  CD2 PHE A   2      -7.388  -0.692   3.845  1.00  0.00     0.004 A 
ATOM     27  CE1 PHE A   2      -7.412  -3.273   2.768  1.00  0.00     0.000 A 
ATOM     28  CE2 PHE A   2      -8.401  -1.588   4.198  1.00  0.00     0.000 A 
ATOM     29  CZ  PHE A   2      -8.411  -2.879   3.662  1.00  0.00     0.000 A 
ENDBRANCH  23  24
ENDBRANCH  11  23
ENDBRANCH   8  11
ENDBRANCH   5   7
ENDBRANCH   1   5
BRANCH   3  30
ATOM     30  CA  ARG A   4       0.930   1.493  -1.005  1.00  0.00     0.171 C 
BRANCH  30  31
ATOM     31  C   ARG A   4       1.776   0.379  -0.435  1.00  0.00     0.243 C 
ATOM     32  N   ARG A   5       2.574  -0.429  -1.316  1.00  0.00    -0.343 N 
ATOM     33  O   ARG A   4       1.832   0.194   0.812  1.00  0.00    -0.273 OA
ATOM     34  H   UNL     1       2.585  -0.193  -2.335  1.00  0.00     0.164 HD
BRANCH  32  35
ATOM     35  CA  ARG A   5       3.412  -1.525  -0.817  1.00  0.00     0.171 C 
BRANCH  35  36
ATOM     36  C   ARG A   5       4.639  -0.936  -0.171  1.00  0.00     0.243 C 
ATOM     37  N   ASN A   6       4.838  -1.060   1.247  1.00  0.00    -0.341 N 
ATOM     38  O   ARG A   5       5.458  -0.282  -0.871  1.00  0.00    -0.273 OA
ATOM     39  H   UNL     1       4.171  -1.663   1.781  1.00  0.00     0.164 HD
BRANCH  37  40
ATOM     40  CA  ASN A   6       5.792  -0.218   1.982  1.00  0.00     0.201 C 
BRANCH  40  41
ATOM     41  C   ASN A   6       7.213  -0.511   1.572  1.00  0.00     0.326 C 
ATOM     42  O   ASN A   6       7.584  -1.693   1.340  1.00  0.00    -0.250 OA
BRANCH  41  43
ATOM     43  OXT ASN A   6       8.137   0.529   1.504  1.00  0.00    -0.480 OA
ATOM     44  H   UNL     1       9.100   0.352   1.247  1.00  0.00     0.296 HD
ENDBRANCH  41  43
ENDBRANCH  40  41
BRANCH  40  45
ATOM     45  CB  ASN A   6       5.608  -0.361   3.510  1.00  0.00     0.136 C 
BRANCH  45  46
ATOM     46  CG  ASN A   6       6.062  -1.690   4.065  1.00  0.00     0.220 C 
ATOM     47  ND2 ASN A   6       6.846  -1.741   5.258  1.00  0.00    -0.370 N 
ATOM     48  OD1 ASN A   6       5.717  -2.766   3.506  1.00  0.00    -0.275 OA
ATOM     49  H   UNL     1       7.090  -0.866   5.774  1.00  0.00     0.159 HD
ATOM     50  H   UNL     1       7.157  -2.659   5.644  1.00  0.00     0.159 HD
ENDBRANCH  45  46
ENDBRANCH  40  45
ENDBRANCH  37  40
ENDBRANCH  35  36
BRANCH  35  51
ATOM     51  CB  ARG A   5       3.778  -2.493  -1.970  1.00  0.00     0.037 C 
BRANCH  51  52
ATOM     52  CG  ARG A   5       3.980  -3.953  -1.520  1.00  0.00     0.024 C 
BRANCH  52  53
ATOM     53  CD  ARG A   5       5.249  -4.199  -0.689  1.00  0.00     0.116 C 
BRANCH  53  54
ATOM     54  NE  ARG A   5       6.469  -4.007  -1.475  1.00  0.00    -0.357 N 
ATOM     55  CZ  ARG A   5       7.789  -4.239  -0.950  1.00  0.00     0.185 C 
ATOM     56  NH2 ARG A   5       8.920  -4.093  -1.805  1.00  0.00    -0.370 N 
ATOM     57  H   UNL     1       6.391  -3.733  -2.479  1.00  0.00     0.163 HD
ATOM     58  H   UNL     1       9.886  -4.256  -1.442  1.00  0.00     0.159 HD
ATOM     59  H   UNL     1       8.797  -3.833  -2.810  1.00  0.00     0.159 HD
BRANCH  55  60
ATOM     60  NH1 ARG A   5       7.976  -4.579   0.287  1.00  0.00    -0.270 NA
ATOM     61  H   UNL     1       7.203  -4.707   0.977  1.00  0.00     0.191 HD
ENDBRANCH  55  60
ENDBRANCH  53  54
ENDBRANCH  52  53
ENDBRANCH  51  52
ENDBRANCH  35  51
ENDBRANCH  32  35
ENDBRANCH  30  31
BRANCH  30  62
ATOM     62  CB  ARG A   4       1.798   2.751  -1.208  1.00  0.00     0.037 C 
BRANCH  62  63
ATOM     63  CG  ARG A   4       1.044   3.846  -1.977  1.00  0.00     0.024 C 
BRANCH  63  64
ATOM     64  CD  ARG A   4       1.968   5.009  -2.355  1.00  0.00     0.116 C 
BRANCH  64  65
ATOM     65  NE  ARG A   4       1.222   6.040  -3.079  1.00  0.00    -0.357 N 
ATOM     66  CZ  ARG A   4       0.720   5.897  -4.423  1.00  0.00     0.185 C 
ATOM     67  NH2 ARG A   4      -0.179   6.879  -4.940  1.00  0.00    -0.370 N 
ATOM     68  H   UNL     1       1.034   6.940  -2.583  1.00  0.00     0.163 HD
ATOM     69  H   UNL     1      -0.534   6.814  -5.918  1.00  0.00     0.159 HD
ATOM     70  H   UNL     1      -0.481   7.687  -4.350  1.00  0.00     0.159 HD
BRANCH  66  71
ATOM     71  NH1 ARG A   4       1.080   4.911  -5.186  1.00  0.00    -0.270 NA
ATOM     72  H   UNL     1       1.741   4.163  -4.887  1.00  0.00     0.191 HD
ENDBRANCH  66  71
ENDBRANCH  64  65
ENDBRANCH  63  64
ENDBRANCH  62  63
ENDBRANCH  30  62
ENDBRANCH   3  30
TORSDOF 29
