REMARK SMILES CC(C)C[C@H](NC(=O)[C@H](CCCCN)NC(=O)[C@H](Cc1ccccc1)NC(=O)[C@@H](N)CO)C(=O)N[C@@H](CCCNC(=N)N)C(=O)N[C@@H](CCC(N)=O)C(=O)O
REMARK SMILES IDX 7 1 8 2 6 3 9 5 15 6 16 7 17 8 18 10 26 11 27 12 28 13 29 15
REMARK SMILES IDX 30 16 31 19 32 20 19 22 20 23 21 24 25 25 22 26 24 27 23 28
REMARK SMILES IDX 10 29 11 30 12 31 13 32 14 33 5 36 33 37 35 38 34 39 36 41
REMARK SMILES IDX 44 42 46 43 45 44 47 46 53 47 54 48 55 49 48 51 49 52 50 53
REMARK SMILES IDX 51 54 52 55 37 58 38 59 39 60 40 61 41 62 43 63 42 67 4 69
REMARK SMILES IDX 2 70 1 71 3 72
REMARK H PARENT 6 4 15 9 26 14 30 17 30 18 32 21 14 34 14 35 35 40 46 45 55 50
REMARK H PARENT 51 56 51 57 40 64 43 65 43 66 42 68
ROOT
ATOM      1  C   LYS A   3      20.041  10.091  -6.475  1.00  0.00     0.243 C 
ATOM      2  O   LYS A   3      20.140   9.166  -5.621  1.00  0.00    -0.273 OA
ATOM      3  N   LEU A   4      20.575   9.926  -7.777  1.00  0.00    -0.343 N 
ATOM      4  H   UNL     1      20.420  10.668  -8.498  1.00  0.00     0.164 HD
ENDROOT
BRANCH   1   5
ATOM      5  CA  LYS A   3      19.306  11.352  -6.163  1.00  0.00     0.171 C 
BRANCH   5   6
ATOM      6  N   LYS A   3      18.060  11.016  -5.538  1.00  0.00    -0.343 N 
ATOM      7  C   PHE A   2      16.870  11.745  -5.777  1.00  0.00     0.243 C 
ATOM      8  O   PHE A   2      16.892  12.796  -6.475  1.00  0.00    -0.273 OA
ATOM      9  H   UNL     1      18.142  10.458  -4.664  1.00  0.00     0.164 HD
BRANCH   7  10
ATOM     10  CA  PHE A   2      15.642  11.313  -5.056  1.00  0.00     0.175 C 
BRANCH  10  11
ATOM     11  N   PHE A   2      14.445  11.739  -5.765  1.00  0.00    -0.343 N 
ATOM     12  C   SER A   1      13.910  13.050  -5.637  1.00  0.00     0.239 C 
ATOM     13  O   SER A   1      14.440  13.871  -4.838  1.00  0.00    -0.273 OA
ATOM     14  H   UNL     1      13.854  10.998  -6.202  1.00  0.00     0.164 HD
BRANCH  12  15
ATOM     15  CA  SER A   1      12.659  13.411  -6.393  1.00  0.00     0.167 C 
BRANCH  15  16
ATOM     16  N   SER A   1      12.471  14.863  -6.380  1.00  0.00    -0.318 NA
ATOM     17  H   UNL     1      11.538  15.090  -6.797  1.00  0.00     0.119 HD
ATOM     18  H   UNL     1      13.202  15.318  -6.975  1.00  0.00     0.119 HD
ENDBRANCH  15  16
BRANCH  15  19
ATOM     19  CB  SER A   1      12.691  12.881  -7.847  1.00  0.00     0.184 C 
BRANCH  19  20
ATOM     20  OG  SER A   1      11.436  13.051  -8.443  1.00  0.00    -0.394 OA
ATOM     21  H   UNL     1      11.538  12.776  -9.392  1.00  0.00     0.210 HD
ENDBRANCH  19  20
ENDBRANCH  15  19
ENDBRANCH  12  15
ENDBRANCH  10  11
BRANCH  10  22
ATOM     22  CB  PHE A   2      15.604   9.773  -4.886  1.00  0.00     0.070 C 
BRANCH  22  23
ATOM     23  CG  PHE A   2      14.436   9.289  -4.090  1.00  0.00    -0.045 A 
ATOM     24  CD1 PHE A   2      13.898  10.046  -3.031  1.00  0.00     0.004 A 
ATOM     25  CD2 PHE A   2      13.963   7.989  -4.309  1.00  0.00     0.004 A 
ATOM     26  CE1 PHE A   2      12.866   9.534  -2.257  1.00  0.00     0.000 A 
ATOM     27  CE2 PHE A   2      12.936   7.475  -3.519  1.00  0.00     0.000 A 
ATOM     28  CZ  PHE A   2      12.384   8.251  -2.499  1.00  0.00     0.000 A 
ENDBRANCH  22  23
ENDBRANCH  10  22
ENDBRANCH   7  10
ENDBRANCH   5   6
BRANCH   5  29
ATOM     29  CB  LYS A   3      20.083  12.286  -5.245  1.00  0.00     0.035 C 
BRANCH  29  30
ATOM     30  CG  LYS A   3      20.313  11.722  -3.822  1.00  0.00     0.004 C 
BRANCH  30  31
ATOM     31  CD  LYS A   3      21.617  12.212  -3.239  1.00  0.00     0.015 C 
BRANCH  31  32
ATOM     32  CE  LYS A   3      22.795  11.635  -3.957  1.00  0.00     0.077 C 
BRANCH  32  33
ATOM     33  NZ  LYS A   3      22.892  10.182  -3.773  1.00  0.00    -0.330 NA
ATOM     34  H   UNL     1      22.326   9.702  -4.506  1.00  0.00     0.118 HD
ATOM     35  H   UNL     1      22.530   9.893  -2.836  1.00  0.00     0.118 HD
ENDBRANCH  32  33
ENDBRANCH  31  32
ENDBRANCH  30  31
ENDBRANCH  29  30
ENDBRANCH   5  29
ENDBRANCH   1   5
BRANCH   3  36
ATOM     36  CA  LEU A   4      21.355   8.761  -8.140  1.00  0.00     0.171 C 
BRANCH  36  37
ATOM     37  C   LEU A   4      22.720   9.214  -8.520  1.00  0.00     0.243 C 
ATOM     38  N   ARG A   5      23.829   8.725  -7.779  1.00  0.00    -0.343 N 
ATOM     39  O   LEU A   4      22.884  10.029  -9.469  1.00  0.00    -0.273 OA
ATOM     40  H   UNL     1      23.673   8.041  -7.003  1.00  0.00     0.164 HD
BRANCH  38  41
ATOM     41  CA  ARG A   5      25.194   9.119  -8.074  1.00  0.00     0.171 C 
BRANCH  41  42
ATOM     42  C   ARG A   5      25.899   7.963  -8.689  1.00  0.00     0.243 C 
ATOM     43  N   GLN A   6      25.924   7.877 -10.105  1.00  0.00    -0.341 N 
ATOM     44  O   ARG A   5      26.440   7.075  -7.977  1.00  0.00    -0.273 OA
ATOM     45  H   UNL     1      25.601   8.715 -10.638  1.00  0.00     0.164 HD
BRANCH  43  46
ATOM     46  CA  GLN A   6      26.537   6.765 -10.819  1.00  0.00     0.192 C 
BRANCH  46  47
ATOM     47  C   GLN A   6      27.987   6.641 -10.430  1.00  0.00     0.326 C 
ATOM     48  O   GLN A   6      28.794   7.576 -10.679  1.00  0.00    -0.250 OA
BRANCH  47  49
ATOM     49  OXT GLN A   6      28.437   5.488  -9.795  1.00  0.00    -0.480 OA
ATOM     50  H   UNL     1      29.409   5.388  -9.526  1.00  0.00     0.296 HD
ENDBRANCH  47  49
ENDBRANCH  46  47
BRANCH  46  51
ATOM     51  CB  GLN A   6      26.420   6.985 -12.337  1.00  0.00     0.047 C 
BRANCH  51  52
ATOM     52  CG  GLN A   6      24.963   7.131 -12.803  1.00  0.00     0.102 C 
BRANCH  52  53
ATOM     53  CD  GLN A   6      24.894   7.144 -14.300  1.00  0.00     0.217 C 
ATOM     54  NE2 GLN A   6      25.140   8.350 -15.023  1.00  0.00    -0.370 N 
ATOM     55  OE1 GLN A   6      24.654   6.078 -14.927  1.00  0.00    -0.275 OA
ATOM     56  H   UNL     1      25.105   8.356 -16.066  1.00  0.00     0.159 HD
ATOM     57  H   UNL     1      25.362   9.237 -14.518  1.00  0.00     0.159 HD
ENDBRANCH  52  53
ENDBRANCH  51  52
ENDBRANCH  46  51
ENDBRANCH  43  46
ENDBRANCH  41  42
BRANCH  41  58
ATOM     58  CB  ARG A   5      25.895   9.595  -6.807  1.00  0.00     0.037 C 
BRANCH  58  59
ATOM     59  CG  ARG A   5      25.203  10.833  -6.256  1.00  0.00     0.024 C 
BRANCH  59  60
ATOM     60  CD  ARG A   5      25.913  11.378  -5.018  1.00  0.00     0.116 C 
BRANCH  60  61
ATOM     61  NE  ARG A   5      25.568  10.631  -3.807  1.00  0.00    -0.357 N 
ATOM     62  CZ  ARG A   5      25.578  11.246  -2.512  1.00  0.00     0.185 C 
ATOM     63  NH2 ARG A   5      26.113  12.554  -2.343  1.00  0.00    -0.370 N 
ATOM     64  H   UNL     1      25.423   9.598  -3.870  1.00  0.00     0.163 HD
ATOM     65  H   UNL     1      25.999  13.049  -1.430  1.00  0.00     0.159 HD
ATOM     66  H   UNL     1      26.721  13.003  -3.061  1.00  0.00     0.159 HD
BRANCH  62  67
ATOM     67  NH1 ARG A   5      25.025  10.653  -1.501  1.00  0.00    -0.270 NA
ATOM     68  H   UNL     1      24.602   9.703  -1.583  1.00  0.00     0.191 HD
ENDBRANCH  62  67
ENDBRANCH  60  61
ENDBRANCH  59  60
ENDBRANCH  58  59
ENDBRANCH  41  58
ENDBRANCH  38  41
ENDBRANCH  36  37
BRANCH  36  69
ATOM     69  CB  LEU A   4      20.660   8.001  -9.273  1.00  0.00     0.038 C 
BRANCH  69  70
ATOM     70  CG  LEU A   4      21.452   6.771  -9.771  1.00  0.00    -0.015 C 
ATOM     71  CD1 LEU A   4      21.765   5.780  -8.640  1.00  0.00     0.007 C 
ATOM     72  CD2 LEU A   4      20.661   6.067 -10.877  1.00  0.00     0.007 C 
ENDBRANCH  69  70
ENDBRANCH  36  69
ENDBRANCH   3  36
TORSDOF 32
