REMARK SMILES CC[C@H](C)[C@H](NC(=O)[C@H](CC(C)C)NC(=O)CNC(=O)[C@@H](N)CO)C(=O)N[C@@H](CCCNC(=N)N)C(=O)N[C@@H](CC(N)=O)C(=O)O
REMARK SMILES IDX 7 1 8 2 6 3 9 5 14 6 15 7 16 8 17 10 18 11 19 12 20 13 21 15
REMARK SMILES IDX 22 16 23 19 24 20 10 22 11 23 12 24 13 25 5 26 25 27 27 28
REMARK SMILES IDX 26 29 28 31 36 32 38 33 37 34 39 36 44 37 45 38 46 39 40 41
REMARK SMILES IDX 41 42 42 43 43 44 29 47 30 48 31 49 32 50 33 51 35 52 34 56
REMARK SMILES IDX 3 58 4 59 2 60 1 61
REMARK H PARENT 6 4 14 9 18 14 22 17 22 18 24 21 27 30 38 35 46 40 42 45 42 46
REMARK H PARENT 32 53 35 54 35 55 34 57
ROOT
ATOM      1  C   LEU A   3      20.038  10.073  -6.468  1.00  0.00     0.243 C 
ATOM      2  O   LEU A   3      20.158   9.143  -5.624  1.00  0.00    -0.273 OA
ATOM      3  N   ILE A   4      20.579   9.938  -7.770  1.00  0.00    -0.342 N 
ATOM      4  H   UNL     1      20.497  10.738  -8.439  1.00  0.00     0.164 HD
ENDROOT
BRANCH   1   5
ATOM      5  CA  LEU A   3      19.306  11.326  -6.127  1.00  0.00     0.171 C 
BRANCH   5   6
ATOM      6  N   LEU A   3      18.032  10.981  -5.533  1.00  0.00    -0.343 N 
ATOM      7  C   GLY A   2      16.865  11.758  -5.737  1.00  0.00     0.240 C 
ATOM      8  O   GLY A   2      16.902  12.806  -6.440  1.00  0.00    -0.273 OA
ATOM      9  H   UNL     1      17.988  10.192  -4.847  1.00  0.00     0.164 HD
BRANCH   7  10
ATOM     10  CA  GLY A   2      15.630  11.330  -5.022  1.00  0.00     0.216 C 
BRANCH  10  11
ATOM     11  N   GLY A   2      14.438  11.726  -5.741  1.00  0.00    -0.346 N 
ATOM     12  C   SER A   1      13.910  13.044  -5.629  1.00  0.00     0.239 C 
ATOM     13  O   SER A   1      14.447  13.869  -4.839  1.00  0.00    -0.273 OA
ATOM     14  H   UNL     1      13.855  10.961  -6.143  1.00  0.00     0.164 HD
BRANCH  12  15
ATOM     15  CA  SER A   1      12.658  13.407  -6.385  1.00  0.00     0.167 C 
BRANCH  15  16
ATOM     16  N   SER A   1      12.455  14.858  -6.404  1.00  0.00    -0.318 NA
ATOM     17  H   UNL     1      13.318  15.330  -6.763  1.00  0.00     0.119 HD
ATOM     18  H   UNL     1      12.286  15.193  -5.427  1.00  0.00     0.119 HD
ENDBRANCH  15  16
BRANCH  15  19
ATOM     19  CB  SER A   1      12.691  12.875  -7.834  1.00  0.00     0.184 C 
BRANCH  19  20
ATOM     20  OG  SER A   1      11.443  13.047  -8.447  1.00  0.00    -0.394 OA
ATOM     21  H   UNL     1      10.839  12.357  -8.066  1.00  0.00     0.210 HD
ENDBRANCH  19  20
ENDBRANCH  15  19
ENDBRANCH  12  15
ENDBRANCH  10  11
ENDBRANCH   7  10
ENDBRANCH   5   6
BRANCH   5  22
ATOM     22  CB  LEU A   3      20.131  12.238  -5.208  1.00  0.00     0.038 C 
BRANCH  22  23
ATOM     23  CG  LEU A   3      20.405  11.668  -3.789  1.00  0.00    -0.015 C 
ATOM     24  CD1 LEU A   3      21.807  12.071  -3.322  1.00  0.00     0.007 C 
ATOM     25  CD2 LEU A   3      19.354  12.144  -2.780  1.00  0.00     0.007 C 
ENDBRANCH  22  23
ENDBRANCH   5  22
ENDBRANCH   1   5
BRANCH   3  26
ATOM     26  CA  ILE A   4      21.346   8.772  -8.166  1.00  0.00     0.174 C 
BRANCH  26  27
ATOM     27  C   ILE A   4      22.719   9.217  -8.535  1.00  0.00     0.243 C 
ATOM     28  N   ARG A   5      23.821   8.720  -7.790  1.00  0.00    -0.343 N 
ATOM     29  O   ILE A   4      22.895  10.047  -9.467  1.00  0.00    -0.273 OA
ATOM     30  H   UNL     1      23.660   8.029  -7.021  1.00  0.00     0.164 HD
BRANCH  28  31
ATOM     31  CA  ARG A   5      25.186   9.120  -8.072  1.00  0.00     0.171 C 
BRANCH  31  32
ATOM     32  C   ARG A   5      25.901   7.967  -8.685  1.00  0.00     0.243 C 
ATOM     33  N   ASN A   6      25.913   7.864 -10.102  1.00  0.00    -0.341 N 
ATOM     34  O   ARG A   5      26.448   7.086  -7.969  1.00  0.00    -0.273 OA
ATOM     35  H   UNL     1      25.488   8.646 -10.650  1.00  0.00     0.164 HD
BRANCH  33  36
ATOM     36  CA  ASN A   6      26.542   6.750 -10.804  1.00  0.00     0.201 C 
BRANCH  36  37
ATOM     37  C   ASN A   6      27.993   6.642 -10.416  1.00  0.00     0.326 C 
ATOM     38  O   ASN A   6      28.794   7.579 -10.677  1.00  0.00    -0.250 OA
BRANCH  37  39
ATOM     39  OXT ASN A   6      28.452   5.499  -9.769  1.00  0.00    -0.480 OA
ATOM     40  H   UNL     1      29.424   5.409  -9.500  1.00  0.00     0.296 HD
ENDBRANCH  37  39
ENDBRANCH  36  37
BRANCH  36  41
ATOM     41  CB  ASN A   6      26.425   6.947 -12.323  1.00  0.00     0.136 C 
BRANCH  41  42
ATOM     42  CG  ASN A   6      25.010   7.181 -12.773  1.00  0.00     0.220 C 
ATOM     43  ND2 ASN A   6      24.754   8.091 -13.833  1.00  0.00    -0.370 N 
ATOM     44  OD1 ASN A   6      24.053   6.558 -12.243  1.00  0.00    -0.275 OA
ATOM     45  H   UNL     1      23.775   8.259 -14.156  1.00  0.00     0.159 HD
ATOM     46  H   UNL     1      25.533   8.600 -14.306  1.00  0.00     0.159 HD
ENDBRANCH  41  42
ENDBRANCH  36  41
ENDBRANCH  33  36
ENDBRANCH  31  32
BRANCH  31  47
ATOM     47  CB  ARG A   5      25.861   9.602  -6.793  1.00  0.00     0.037 C 
BRANCH  47  48
ATOM     48  CG  ARG A   5      25.165  10.858  -6.269  1.00  0.00     0.024 C 
BRANCH  48  49
ATOM     49  CD  ARG A   5      25.839  11.391  -5.013  1.00  0.00     0.116 C 
BRANCH  49  50
ATOM     50  NE  ARG A   5      25.378  10.686  -3.820  1.00  0.00    -0.357 N 
ATOM     51  CZ  ARG A   5      25.469  11.281  -2.526  1.00  0.00     0.185 C 
ATOM     52  NH2 ARG A   5      26.107  12.546  -2.351  1.00  0.00    -0.370 N 
ATOM     53  H   UNL     1      24.894   9.763  -3.912  1.00  0.00     0.163 HD
ATOM     54  H   UNL     1      26.080  13.024  -1.423  1.00  0.00     0.159 HD
ATOM     55  H   UNL     1      26.697  12.982  -3.093  1.00  0.00     0.159 HD
BRANCH  51  56
ATOM     56  NH1 ARG A   5      24.954  10.672  -1.507  1.00  0.00    -0.270 NA
ATOM     57  H   UNL     1      24.995  11.076  -0.545  1.00  0.00     0.191 HD
ENDBRANCH  51  56
ENDBRANCH  49  50
ENDBRANCH  48  49
ENDBRANCH  47  48
ENDBRANCH  31  47
ENDBRANCH  28  31
ENDBRANCH  26  27
BRANCH  26  58
ATOM     58  CB  ILE A   4      20.628   7.977  -9.284  1.00  0.00     0.018 C 
ATOM     59  CG1 ILE A   4      20.219   8.833 -10.499  1.00  0.00     0.010 C 
BRANCH  58  60
ATOM     60  CG2 ILE A   4      21.453   6.763  -9.763  1.00  0.00     0.002 C 
ATOM     61  CD1 ILE A   4      21.770   5.775  -8.642  1.00  0.00     0.004 C 
ENDBRANCH  58  60
ENDBRANCH  26  58
ENDBRANCH   3  26
TORSDOF 26
