REMARK SMILES CC(C)C[C@H](NC(=O)[C@H](CO)NC(=O)[C@H](Cc1ccccc1)NC(=O)[C@@H](N)CO)C(=O)N[C@@H](CCCCN)C(=O)N[C@@H](CC(N)=O)C(=O)O
REMARK SMILES IDX 7 1 8 2 6 3 9 5 12 6 13 7 14 8 15 10 23 11 24 12 25 13 26 15
REMARK SMILES IDX 27 16 28 19 29 20 16 22 17 23 18 24 22 25 19 26 21 27 20 28
REMARK SMILES IDX 10 29 11 30 5 32 30 33 32 34 31 35 33 37 39 38 41 39 40 40
REMARK SMILES IDX 42 42 47 43 48 44 49 45 43 47 44 48 45 49 46 50 34 53 35 54
REMARK SMILES IDX 36 55 37 56 38 57 4 60 2 61 1 62 3 63
REMARK H PARENT 6 4 12 9 23 14 27 17 27 18 29 21 11 31 32 36 41 41 49 46 45 51
REMARK H PARENT 45 52 38 58 38 59
ROOT
ATOM      1  C   SER A   3      20.047  10.098  -6.461  1.00  0.00     0.245 C 
ATOM      2  O   SER A   3      20.173   9.193  -5.589  1.00  0.00    -0.273 OA
ATOM      3  N   LEU A   4      20.561   9.920  -7.771  1.00  0.00    -0.342 N 
ATOM      4  H   UNL     1      20.393  10.656  -8.496  1.00  0.00     0.164 HD
ENDROOT
BRANCH   1   5
ATOM      5  CA  SER A   3      19.342  11.371  -6.140  1.00  0.00     0.197 C 
BRANCH   5   6
ATOM      6  N   SER A   3      18.094  11.056  -5.495  1.00  0.00    -0.340 N 
ATOM      7  C   PHE A   2      16.888  11.751  -5.773  1.00  0.00     0.243 C 
ATOM      8  O   PHE A   2      16.900  12.792  -6.486  1.00  0.00    -0.273 OA
ATOM      9  H   UNL     1      18.179  10.533  -4.597  1.00  0.00     0.164 HD
BRANCH   7  10
ATOM     10  CA  PHE A   2      15.652  11.314  -5.060  1.00  0.00     0.175 C 
BRANCH  10  11
ATOM     11  N   PHE A   2      14.453  11.740  -5.769  1.00  0.00    -0.343 N 
ATOM     12  C   SER A   1      13.915  13.050  -5.636  1.00  0.00     0.239 C 
ATOM     13  O   SER A   1      14.449  13.869  -4.839  1.00  0.00    -0.273 OA
ATOM     14  H   UNL     1      13.861  11.001  -6.207  1.00  0.00     0.164 HD
BRANCH  12  15
ATOM     15  CA  SER A   1      12.655  13.410  -6.383  1.00  0.00     0.167 C 
BRANCH  15  16
ATOM     16  N   SER A   1      12.467  14.863  -6.382  1.00  0.00    -0.318 NA
ATOM     17  H   UNL     1      11.581  15.087  -6.890  1.00  0.00     0.119 HD
ATOM     18  H   UNL     1      12.304  15.174  -5.396  1.00  0.00     0.119 HD
ENDBRANCH  15  16
BRANCH  15  19
ATOM     19  CB  SER A   1      12.695  12.894  -7.842  1.00  0.00     0.184 C 
BRANCH  19  20
ATOM     20  OG  SER A   1      11.440  13.037  -8.449  1.00  0.00    -0.394 OA
ATOM     21  H   UNL     1      10.855  12.333  -8.065  1.00  0.00     0.210 HD
ENDBRANCH  19  20
ENDBRANCH  15  19
ENDBRANCH  12  15
ENDBRANCH  10  11
BRANCH  10  22
ATOM     22  CB  PHE A   2      15.616   9.775  -4.892  1.00  0.00     0.070 C 
BRANCH  22  23
ATOM     23  CG  PHE A   2      14.447   9.289  -4.089  1.00  0.00    -0.045 A 
ATOM     24  CD1 PHE A   2      13.905  10.046  -3.033  1.00  0.00     0.004 A 
ATOM     25  CD2 PHE A   2      13.970   7.990  -4.310  1.00  0.00     0.004 A 
ATOM     26  CE1 PHE A   2      12.870   9.536  -2.261  1.00  0.00     0.000 A 
ATOM     27  CE2 PHE A   2      12.941   7.477  -3.522  1.00  0.00     0.000 A 
ATOM     28  CZ  PHE A   2      12.387   8.253  -2.503  1.00  0.00     0.000 A 
ENDBRANCH  22  23
ENDBRANCH  10  22
ENDBRANCH   7  10
ENDBRANCH   5   6
BRANCH   5  29
ATOM     29  CB  SER A   3      20.183  12.266  -5.227  1.00  0.00     0.191 C 
BRANCH  29  30
ATOM     30  OG  SER A   3      20.507  11.621  -4.022  1.00  0.00    -0.394 OA
ATOM     31  H   UNL     1      19.799  11.856  -3.367  1.00  0.00     0.210 HD
ENDBRANCH  29  30
ENDBRANCH   5  29
ENDBRANCH   1   5
BRANCH   3  32
ATOM     32  CA  LEU A   4      21.347   8.759  -8.136  1.00  0.00     0.171 C 
BRANCH  32  33
ATOM     33  C   LEU A   4      22.712   9.217  -8.517  1.00  0.00     0.243 C 
ATOM     34  N   LYS A   5      23.822   8.729  -7.777  1.00  0.00    -0.343 N 
ATOM     35  O   LEU A   4      22.875  10.030  -9.468  1.00  0.00    -0.273 OA
ATOM     36  H   UNL     1      23.669   8.042  -7.004  1.00  0.00     0.164 HD
BRANCH  34  37
ATOM     37  CA  LYS A   5      25.184   9.130  -8.073  1.00  0.00     0.171 C 
BRANCH  37  38
ATOM     38  C   LYS A   5      25.897   7.972  -8.686  1.00  0.00     0.243 C 
ATOM     39  N   ASN A   6      25.912   7.868 -10.103  1.00  0.00    -0.341 N 
ATOM     40  O   LYS A   5      26.443   7.090  -7.970  1.00  0.00    -0.273 OA
ATOM     41  H   UNL     1      25.489   8.651 -10.652  1.00  0.00     0.164 HD
BRANCH  39  42
ATOM     42  CA  ASN A   6      26.541   6.753 -10.803  1.00  0.00     0.201 C 
BRANCH  42  43
ATOM     43  C   ASN A   6      27.991   6.643 -10.414  1.00  0.00     0.326 C 
ATOM     44  O   ASN A   6      28.794   7.579 -10.677  1.00  0.00    -0.250 OA
BRANCH  43  45
ATOM     45  OXT ASN A   6      28.449   5.501  -9.765  1.00  0.00    -0.480 OA
ATOM     46  H   UNL     1      29.421   5.410  -9.496  1.00  0.00     0.296 HD
ENDBRANCH  43  45
ENDBRANCH  42  43
BRANCH  42  47
ATOM     47  CB  ASN A   6      26.424   6.947 -12.323  1.00  0.00     0.136 C 
BRANCH  47  48
ATOM     48  CG  ASN A   6      25.010   7.181 -12.773  1.00  0.00     0.220 C 
ATOM     49  ND2 ASN A   6      24.753   8.090 -13.834  1.00  0.00    -0.370 N 
ATOM     50  OD1 ASN A   6      24.053   6.558 -12.243  1.00  0.00    -0.275 OA
ATOM     51  H   UNL     1      23.775   8.258 -14.157  1.00  0.00     0.159 HD
ATOM     52  H   UNL     1      25.533   8.600 -14.306  1.00  0.00     0.159 HD
ENDBRANCH  47  48
ENDBRANCH  42  47
ENDBRANCH  39  42
ENDBRANCH  37  38
BRANCH  37  53
ATOM     53  CB  LYS A   5      25.876   9.617  -6.804  1.00  0.00     0.035 C 
BRANCH  53  54
ATOM     54  CG  LYS A   5      25.176  10.855  -6.229  1.00  0.00     0.004 C 
BRANCH  54  55
ATOM     55  CD  LYS A   5      25.869  11.362  -4.958  1.00  0.00     0.015 C 
BRANCH  55  56
ATOM     56  CE  LYS A   5      27.268  11.961  -5.178  1.00  0.00     0.077 C 
BRANCH  56  57
ATOM     57  NZ  LYS A   5      27.215  13.109  -6.080  1.00  0.00    -0.330 NA
ATOM     58  H   UNL     1      28.108  13.642  -5.971  1.00  0.00     0.118 HD
ATOM     59  H   UNL     1      27.212  12.754  -7.063  1.00  0.00     0.118 HD
ENDBRANCH  56  57
ENDBRANCH  55  56
ENDBRANCH  54  55
ENDBRANCH  53  54
ENDBRANCH  37  53
ENDBRANCH  34  37
ENDBRANCH  32  33
BRANCH  32  60
ATOM     60  CB  LEU A   4      20.655   7.998  -9.270  1.00  0.00     0.038 C 
BRANCH  60  61
ATOM     61  CG  LEU A   4      21.449   6.771  -9.768  1.00  0.00    -0.015 C 
ATOM     62  CD1 LEU A   4      21.764   5.779  -8.638  1.00  0.00     0.007 C 
ATOM     63  CD2 LEU A   4      20.662   6.067 -10.877  1.00  0.00     0.007 C 
ENDBRANCH  60  61
ENDBRANCH  32  60
ENDBRANCH   3  32
TORSDOF 28
