REMARK SMILES CC(C)C[C@H](NC(=O)[C@H](Cc1ccccc1)NC(=O)[C@@H](N)CO)C(=O)NCC(=O)N[C@@H](Cc1c[nH]cn1)C(=O)N[C@@H](CC(N)=O)C(=O)O
REMARK SMILES IDX 24 1 25 2 26 3 5 5 6 6 7 7 8 8 9 10 17 11 18 12 19 13 20 15
REMARK SMILES IDX 21 16 22 19 23 20 10 22 11 23 12 24 16 25 13 26 15 27 14 28
REMARK SMILES IDX 4 29 2 30 1 31 3 32 27 33 28 34 30 35 29 36 31 38 38 39
REMARK SMILES IDX 40 40 39 41 41 43 46 44 47 45 48 46 42 48 43 49 44 50 45 51
REMARK SMILES IDX 32 54 33 55 37 56 34 57 36 58 35 59
REMARK H PARENT 26 4 6 9 17 14 21 17 21 18 23 21 30 37 40 42 48 47 44 52 44 53
REMARK H PARENT 35 60
ROOT
ATOM      1  C   LEU A   3      -0.538  -1.646  -1.538  1.00  0.00     0.243 C 
ATOM      2  O   LEU A   3       0.145  -1.071  -0.645  1.00  0.00    -0.273 OA
ATOM      3  N   GLY A   4      -0.218  -1.428  -2.927  1.00  0.00    -0.345 N 
ATOM      4  H   UNL     1      -0.772  -1.895  -3.680  1.00  0.00     0.164 HD
ENDROOT
BRANCH   1   5
ATOM      5  CA  LEU A   3      -1.720  -2.481  -1.098  1.00  0.00     0.171 C 
BRANCH   5   6
ATOM      6  N   LEU A   3      -2.809  -1.573  -0.729  1.00  0.00    -0.343 N 
ATOM      7  C   PHE A   2      -3.159  -1.297   0.643  1.00  0.00     0.243 C 
ATOM      8  O   PHE A   2      -2.513  -1.851   1.575  1.00  0.00    -0.273 OA
ATOM      9  H   UNL     1      -3.260  -1.036  -1.501  1.00  0.00     0.164 HD
BRANCH   7  10
ATOM     10  CA  PHE A   2      -4.269  -0.344   1.020  1.00  0.00     0.175 C 
BRANCH  10  11
ATOM     11  N   PHE A   2      -3.691   0.921   1.483  1.00  0.00    -0.343 N 
ATOM     12  C   SER A   1      -3.406   1.169   2.870  1.00  0.00     0.239 C 
ATOM     13  O   SER A   1      -3.404   0.212   3.691  1.00  0.00    -0.273 OA
ATOM     14  H   UNL     1      -3.432   1.640   0.771  1.00  0.00     0.164 HD
BRANCH  12  15
ATOM     15  CA  SER A   1      -3.187   2.567   3.388  1.00  0.00     0.167 C 
BRANCH  15  16
ATOM     16  N   SER A   1      -2.343   3.339   2.469  1.00  0.00    -0.318 NA
ATOM     17  H   UNL     1      -1.980   4.177   2.983  1.00  0.00     0.119 HD
ATOM     18  H   UNL     1      -2.923   3.704   1.676  1.00  0.00     0.119 HD
ENDBRANCH  15  16
BRANCH  15  19
ATOM     19  CB  SER A   1      -4.544   3.258   3.631  1.00  0.00     0.184 C 
BRANCH  19  20
ATOM     20  OG  SER A   1      -4.365   4.526   4.203  1.00  0.00    -0.394 OA
ATOM     21  H   UNL     1      -4.086   4.373   5.144  1.00  0.00     0.210 HD
ENDBRANCH  19  20
ENDBRANCH  15  19
ENDBRANCH  12  15
ENDBRANCH  10  11
BRANCH  10  22
ATOM     22  CB  PHE A   2      -5.286  -0.086  -0.111  1.00  0.00     0.070 C 
BRANCH  22  23
ATOM     23  CG  PHE A   2      -6.474   0.692   0.398  1.00  0.00    -0.045 A 
ATOM     24  CD1 PHE A   2      -6.507   2.094   0.285  1.00  0.00     0.004 A 
ATOM     25  CD2 PHE A   2      -7.534   0.027   1.038  1.00  0.00     0.004 A 
ATOM     26  CE1 PHE A   2      -7.591   2.818   0.793  1.00  0.00     0.000 A 
ATOM     27  CE2 PHE A   2      -8.618   0.755   1.542  1.00  0.00     0.000 A 
ATOM     28  CZ  PHE A   2      -8.646   2.147   1.420  1.00  0.00     0.000 A 
ENDBRANCH  22  23
ENDBRANCH  10  22
ENDBRANCH   7  10
ENDBRANCH   5   6
BRANCH   5  29
ATOM     29  CB  LEU A   3      -2.194  -3.495  -2.171  1.00  0.00     0.038 C 
BRANCH  29  30
ATOM     30  CG  LEU A   3      -3.173  -4.596  -1.684  1.00  0.00    -0.015 C 
ATOM     31  CD1 LEU A   3      -4.544  -4.046  -1.263  1.00  0.00     0.007 C 
ATOM     32  CD2 LEU A   3      -2.575  -5.485  -0.584  1.00  0.00     0.007 C 
ENDBRANCH  29  30
ENDBRANCH   5  29
ENDBRANCH   1   5
BRANCH   3  33
ATOM     33  CA  GLY A   4       0.805  -0.473  -3.353  1.00  0.00     0.216 C 
BRANCH  33  34
ATOM     34  C   GLY A   4       2.172  -0.888  -2.882  1.00  0.00     0.240 C 
ATOM     35  N   HIS A   5       3.158   0.114  -2.590  1.00  0.00    -0.342 N 
ATOM     36  O   GLY A   4       2.458  -2.112  -2.787  1.00  0.00    -0.273 OA
ATOM     37  H   UNL     1       2.907   1.115  -2.758  1.00  0.00     0.164 HD
BRANCH  35  38
ATOM     38  CA  HIS A   5       4.467  -0.212  -2.016  1.00  0.00     0.177 C 
BRANCH  38  39
ATOM     39  C   HIS A   5       5.067   1.017  -1.372  1.00  0.00     0.243 C 
ATOM     40  N   ASN A   6       5.323   1.043   0.040  1.00  0.00    -0.340 N 
ATOM     41  O   HIS A   5       5.352   2.019  -2.085  1.00  0.00    -0.273 OA
ATOM     42  H   UNL     1       5.027   0.226   0.619  1.00  0.00     0.164 HD
BRANCH  40  43
ATOM     43  CA  ASN A   6       6.030   2.154   0.683  1.00  0.00     0.201 C 
BRANCH  43  44
ATOM     44  C   ASN A   6       7.501   2.046   0.391  1.00  0.00     0.326 C 
ATOM     45  O   ASN A   6       8.132   0.999   0.695  1.00  0.00    -0.250 OA
BRANCH  44  46
ATOM     46  OXT ASN A   6       8.170   3.112  -0.199  1.00  0.00    -0.480 OA
ATOM     47  H   UNL     1       9.162   3.059  -0.393  1.00  0.00     0.296 HD
ENDBRANCH  44  46
ENDBRANCH  43  44
BRANCH  43  48
ATOM     48  CB  ASN A   6       5.764   2.148   2.201  1.00  0.00     0.136 C 
BRANCH  48  49
ATOM     49  CG  ASN A   6       6.226   3.423   2.847  1.00  0.00     0.220 C 
ATOM     50  ND2 ASN A   6       7.581   3.571   3.272  1.00  0.00    -0.370 N 
ATOM     51  OD1 ASN A   6       5.414   4.375   3.001  1.00  0.00    -0.275 OA
ATOM     52  H   UNL     1       8.268   2.795   3.146  1.00  0.00     0.159 HD
ATOM     53  H   UNL     1       7.898   4.465   3.712  1.00  0.00     0.159 HD
ENDBRANCH  48  49
ENDBRANCH  43  48
ENDBRANCH  40  43
ENDBRANCH  38  39
BRANCH  38  54
ATOM     54  CB  HIS A   5       5.400  -0.772  -3.106  1.00  0.00     0.093 C 
BRANCH  54  55
ATOM     55  CG  HIS A   5       6.717  -1.199  -2.530  1.00  0.00     0.061 A 
ATOM     56  ND1 HIS A   5       7.851  -0.475  -2.622  1.00  0.00    -0.242 NA
ATOM     57  CD2 HIS A   5       6.940  -2.328  -1.773  1.00  0.00     0.107 A 
ATOM     58  CE1 HIS A   5       8.752  -1.197  -1.920  1.00  0.00     0.196 A 
ATOM     59  NE2 HIS A   5       8.226  -2.321  -1.394  1.00  0.00    -0.351 N 
ATOM     60  H   UNL     1       8.716  -3.035  -0.807  1.00  0.00     0.167 HD
ENDBRANCH  54  55
ENDBRANCH  38  54
ENDBRANCH  35  38
ENDBRANCH  33  34
ENDBRANCH   3  33
TORSDOF 23
