REMARK SMILES CC(C)[C@H](NC(=O)[C@H](Cc1ccccc1)NC(=O)[C@@H](N)CO)C(=O)N[C@@H](CCCNC(=N)N)C(=O)N[C@@H](CCCNC(=N)N)C(=O)N[C@@H](CC(N)=O)C(=O)O
REMARK SMILES IDX 23 1 24 2 25 3 4 5 5 6 6 7 7 8 8 10 16 11 17 12 18 13 19 15
REMARK SMILES IDX 20 16 21 19 22 20 9 22 10 23 11 24 15 25 12 26 14 27 13 28
REMARK SMILES IDX 2 29 1 30 3 31 26 32 34 33 36 34 35 35 37 37 45 38 47 39
REMARK SMILES IDX 46 40 48 42 53 43 54 44 55 45 49 47 50 48 51 49 52 50 38 53
REMARK SMILES IDX 39 54 40 55 41 56 42 57 44 58 43 62 27 64 28 65 29 66 30 67
REMARK SMILES IDX 31 68 33 69 32 73
REMARK H PARENT 25 4 5 9 16 14 20 17 20 18 22 21 36 36 47 41 55 46 51 51 51 52
REMARK H PARENT 41 59 44 60 44 61 43 63 30 70 33 71 33 72 32 74
ROOT
ATOM      1  C   VAL A   3      20.051  10.092  -6.463  1.00  0.00     0.243 C 
ATOM      2  O   VAL A   3      20.167   9.177  -5.601  1.00  0.00    -0.273 OA
ATOM      3  N   ARG A   4      20.563   9.920  -7.775  1.00  0.00    -0.343 N 
ATOM      4  H   UNL     1      20.398  10.660  -8.496  1.00  0.00     0.164 HD
ENDROOT
BRANCH   1   5
ATOM      5  CA  VAL A   3      19.345  11.366  -6.136  1.00  0.00     0.174 C 
BRANCH   5   6
ATOM      6  N   VAL A   3      18.086  11.034  -5.522  1.00  0.00    -0.342 N 
ATOM      7  C   PHE A   2      16.886  11.748  -5.775  1.00  0.00     0.243 C 
ATOM      8  O   PHE A   2      16.903  12.795  -6.479  1.00  0.00    -0.273 OA
ATOM      9  H   UNL     1      18.156  10.439  -4.673  1.00  0.00     0.164 HD
BRANCH   7  10
ATOM     10  CA  PHE A   2      15.651  11.313  -5.058  1.00  0.00     0.175 C 
BRANCH  10  11
ATOM     11  N   PHE A   2      14.454  11.741  -5.768  1.00  0.00    -0.343 N 
ATOM     12  C   SER A   1      13.915  13.051  -5.637  1.00  0.00     0.239 C 
ATOM     13  O   SER A   1      14.444  13.870  -4.836  1.00  0.00    -0.273 OA
ATOM     14  H   UNL     1      13.866  11.001  -6.211  1.00  0.00     0.164 HD
BRANCH  12  15
ATOM     15  CA  SER A   1      12.662  13.411  -6.389  1.00  0.00     0.167 C 
BRANCH  15  16
ATOM     16  N   SER A   1      12.471  14.862  -6.376  1.00  0.00    -0.318 NA
ATOM     17  H   UNL     1      13.202  15.317  -6.972  1.00  0.00     0.119 HD
ATOM     18  H   UNL     1      11.539  15.087  -6.794  1.00  0.00     0.119 HD
ENDBRANCH  15  16
BRANCH  15  19
ATOM     19  CB  SER A   1      12.687  12.879  -7.844  1.00  0.00     0.184 C 
BRANCH  19  20
ATOM     20  OG  SER A   1      11.437  13.048  -8.451  1.00  0.00    -0.394 OA
ATOM     21  H   UNL     1      10.832  12.368  -8.054  1.00  0.00     0.210 HD
ENDBRANCH  19  20
ENDBRANCH  15  19
ENDBRANCH  12  15
ENDBRANCH  10  11
BRANCH  10  22
ATOM     22  CB  PHE A   2      15.610   9.773  -4.887  1.00  0.00     0.070 C 
BRANCH  22  23
ATOM     23  CG  PHE A   2      14.439   9.291  -4.091  1.00  0.00    -0.045 A 
ATOM     24  CD1 PHE A   2      13.900  10.047  -3.033  1.00  0.00     0.004 A 
ATOM     25  CD2 PHE A   2      13.966   7.990  -4.310  1.00  0.00     0.004 A 
ATOM     26  CE1 PHE A   2      12.867   9.535  -2.259  1.00  0.00     0.000 A 
ATOM     27  CE2 PHE A   2      12.938   7.476  -3.520  1.00  0.00     0.000 A 
ATOM     28  CZ  PHE A   2      12.385   8.252  -2.501  1.00  0.00     0.000 A 
ENDBRANCH  22  23
ENDBRANCH  10  22
ENDBRANCH   7  10
ENDBRANCH   5   6
BRANCH   5  29
ATOM     29  CB  VAL A   3      20.158  12.287  -5.199  1.00  0.00     0.015 C 
ATOM     30  CG1 VAL A   3      20.449  11.683  -3.811  1.00  0.00     0.010 C 
ATOM     31  CG2 VAL A   3      21.461  12.748  -5.868  1.00  0.00     0.010 C 
ENDBRANCH   5  29
ENDBRANCH   1   5
BRANCH   3  32
ATOM     32  CA  ARG A   4      21.347   8.760  -8.143  1.00  0.00     0.171 C 
BRANCH  32  33
ATOM     33  C   ARG A   4      22.713   9.217  -8.521  1.00  0.00     0.243 C 
ATOM     34  N   ARG A   5      23.822   8.720  -7.785  1.00  0.00    -0.343 N 
ATOM     35  O   ARG A   4      22.878  10.034  -9.467  1.00  0.00    -0.273 OA
ATOM     36  H   UNL     1      23.667   8.030  -7.016  1.00  0.00     0.164 HD
BRANCH  34  37
ATOM     37  CA  ARG A   5      25.186   9.121  -8.074  1.00  0.00     0.171 C 
BRANCH  37  38
ATOM     38  C   ARG A   5      25.900   7.967  -8.686  1.00  0.00     0.243 C 
ATOM     39  N   ASN A   6      25.913   7.864 -10.103  1.00  0.00    -0.341 N 
ATOM     40  O   ARG A   5      26.447   7.086  -7.970  1.00  0.00    -0.273 OA
ATOM     41  H   UNL     1      25.489   8.647 -10.651  1.00  0.00     0.164 HD
BRANCH  39  42
ATOM     42  CA  ASN A   6      26.542   6.750 -10.804  1.00  0.00     0.201 C 
BRANCH  42  43
ATOM     43  C   ASN A   6      27.993   6.642 -10.416  1.00  0.00     0.326 C 
ATOM     44  O   ASN A   6      28.794   7.579 -10.677  1.00  0.00    -0.250 OA
BRANCH  43  45
ATOM     45  OXT ASN A   6      28.451   5.499  -9.768  1.00  0.00    -0.480 OA
ATOM     46  H   UNL     1      29.424   5.409  -9.499  1.00  0.00     0.296 HD
ENDBRANCH  43  45
ENDBRANCH  42  43
BRANCH  42  47
ATOM     47  CB  ASN A   6      26.425   6.946 -12.324  1.00  0.00     0.136 C 
BRANCH  47  48
ATOM     48  CG  ASN A   6      25.011   7.180 -12.774  1.00  0.00     0.220 C 
ATOM     49  ND2 ASN A   6      24.754   8.091 -13.834  1.00  0.00    -0.370 N 
ATOM     50  OD1 ASN A   6      24.053   6.558 -12.243  1.00  0.00    -0.275 OA
ATOM     51  H   UNL     1      25.533   8.600 -14.306  1.00  0.00     0.159 HD
ATOM     52  H   UNL     1      23.775   8.258 -14.157  1.00  0.00     0.159 HD
ENDBRANCH  47  48
ENDBRANCH  42  47
ENDBRANCH  39  42
ENDBRANCH  37  38
BRANCH  37  53
ATOM     53  CB  ARG A   5      25.867   9.605  -6.798  1.00  0.00     0.037 C 
BRANCH  53  54
ATOM     54  CG  ARG A   5      25.167  10.855  -6.269  1.00  0.00     0.024 C 
BRANCH  54  55
ATOM     55  CD  ARG A   5      25.841  11.390  -5.015  1.00  0.00     0.116 C 
BRANCH  55  56
ATOM     56  NE  ARG A   5      25.380  10.684  -3.822  1.00  0.00    -0.357 N 
ATOM     57  CZ  ARG A   5      25.468  11.279  -2.527  1.00  0.00     0.185 C 
ATOM     58  NH2 ARG A   5      26.105  12.542  -2.350  1.00  0.00    -0.370 N 
ATOM     59  H   UNL     1      24.908   9.755  -3.919  1.00  0.00     0.163 HD
ATOM     60  H   UNL     1      26.082  13.008  -1.415  1.00  0.00     0.159 HD
ATOM     61  H   UNL     1      26.691  12.984  -3.091  1.00  0.00     0.159 HD
BRANCH  57  62
ATOM     62  NH1 ARG A   5      24.958  10.679  -1.499  1.00  0.00    -0.270 NA
ATOM     63  H   UNL     1      24.478   9.756  -1.583  1.00  0.00     0.191 HD
ENDBRANCH  57  62
ENDBRANCH  55  56
ENDBRANCH  54  55
ENDBRANCH  53  54
ENDBRANCH  37  53
ENDBRANCH  34  37
ENDBRANCH  32  33
BRANCH  32  64
ATOM     64  CB  ARG A   4      20.658   8.003  -9.281  1.00  0.00     0.037 C 
BRANCH  64  65
ATOM     65  CG  ARG A   4      21.445   6.773  -9.763  1.00  0.00     0.024 C 
BRANCH  65  66
ATOM     66  CD  ARG A   4      21.766   5.761  -8.651  1.00  0.00     0.116 C 
BRANCH  66  67
ATOM     67  NE  ARG A   4      20.569   5.385  -7.897  1.00  0.00    -0.357 N 
ATOM     68  CZ  ARG A   4      19.475   4.611  -8.423  1.00  0.00     0.185 C 
ATOM     69  NH2 ARG A   4      18.258   4.529  -7.682  1.00  0.00    -0.370 N 
ATOM     70  H   UNL     1      20.495   5.725  -6.912  1.00  0.00     0.163 HD
ATOM     71  H   UNL     1      17.455   3.965  -8.039  1.00  0.00     0.159 HD
ATOM     72  H   UNL     1      18.153   5.039  -6.777  1.00  0.00     0.159 HD
BRANCH  68  73
ATOM     73  NH1 ARG A   4      19.572   3.967  -9.545  1.00  0.00    -0.270 NA
ATOM     74  H   UNL     1      20.431   3.960 -10.136  1.00  0.00     0.191 HD
ENDBRANCH  68  73
ENDBRANCH  66  67
ENDBRANCH  65  66
ENDBRANCH  64  65
ENDBRANCH  32  64
ENDBRANCH   3  32
TORSDOF 30
