REMARK SMILES N=C(N)NCCC[C@H](NC(=O)[C@H](Cc1c[nH]cn1)NC(=O)[C@@H]1CCCN1C(=O)[C@H](Cc1ccccc1)NC(=O)[C@@H](N)CO)C(=O)N[C@@H](CC(N)=O)C(=O)O
REMARK SMILES IDX 20 1 21 2 19 3 22 5 26 6 25 7 23 8 24 9 27 10 28 11 29 12
REMARK SMILES IDX 37 13 38 14 39 15 40 17 41 18 42 21 43 22 30 24 31 25 32 26
REMARK SMILES IDX 36 27 33 28 35 29 34 30 12 31 10 32 9 33 11 34 8 36 44 37
REMARK SMILES IDX 46 38 45 39 47 41 52 42 53 43 54 44 48 46 49 47 50 48 51 49
REMARK SMILES IDX 7 52 6 53 5 54 4 55 2 56 3 57 1 61 13 63 14 64 18 65 15 66
REMARK SMILES IDX 17 67 16 68
REMARK H PARENT 19 4 37 16 41 19 41 20 43 23 9 35 46 40 54 45 50 50 50 51 4 58
REMARK H PARENT 3 59 3 60 1 62 16 69
ROOT
ATOM      1  C   PRO A   3      20.016  10.087  -6.437  1.00  0.00     0.243 C 
ATOM      2  O   PRO A   3      20.154   9.171  -5.581  1.00  0.00    -0.273 OA
ATOM      3  N   HIS A   4      20.560   9.927  -7.746  1.00  0.00    -0.342 N 
ATOM      4  H   UNL     1      20.432  10.689  -8.449  1.00  0.00     0.164 HD
ENDROOT
BRANCH   1   5
ATOM      5  CA  PRO A   3      19.243  11.343  -6.115  1.00  0.00     0.174 C 
ATOM      6  N   PRO A   3      18.013  11.364  -6.895  1.00  0.00    -0.329 N 
ATOM      7  CD  PRO A   3      16.840  11.044  -6.096  1.00  0.00     0.120 C 
ATOM      8  CB  PRO A   3      18.766  11.403  -4.661  1.00  0.00     0.037 C 
ATOM      9  CG  PRO A   3      17.357  10.815  -4.680  1.00  0.00     0.024 C 
BRANCH   6  10
ATOM     10  C   PHE A   2      17.935  11.861  -8.242  1.00  0.00     0.246 C 
ATOM     11  O   PHE A   2      18.802  12.680  -8.655  1.00  0.00    -0.272 OA
BRANCH  10  12
ATOM     12  CA  PHE A   2      16.896  11.337  -9.201  1.00  0.00     0.176 C 
BRANCH  12  13
ATOM     13  N   PHE A   2      16.624  12.336 -10.240  1.00  0.00    -0.343 N 
ATOM     14  C   SER A   1      15.804  13.487  -9.990  1.00  0.00     0.239 C 
ATOM     15  O   SER A   1      15.201  13.608  -8.887  1.00  0.00    -0.273 OA
ATOM     16  H   UNL     1      17.154  12.291 -11.141  1.00  0.00     0.164 HD
BRANCH  14  17
ATOM     17  CA  SER A   1      15.720  14.589 -11.015  1.00  0.00     0.167 C 
BRANCH  17  18
ATOM     18  N   SER A   1      14.385  15.189 -11.000  1.00  0.00    -0.318 NA
ATOM     19  H   UNL     1      14.335  15.901 -11.766  1.00  0.00     0.119 HD
ATOM     20  H   UNL     1      13.689  14.448 -11.249  1.00  0.00     0.119 HD
ENDBRANCH  17  18
BRANCH  17  21
ATOM     21  CB  SER A   1      16.782  15.658 -10.721  1.00  0.00     0.184 C 
BRANCH  21  22
ATOM     22  OG  SER A   1      18.063  15.102 -10.821  1.00  0.00    -0.394 OA
ATOM     23  H   UNL     1      18.698  15.826 -10.582  1.00  0.00     0.210 HD
ENDBRANCH  21  22
ENDBRANCH  17  21
ENDBRANCH  14  17
ENDBRANCH  12  13
BRANCH  12  24
ATOM     24  CB  PHE A   2      17.406  10.024  -9.821  1.00  0.00     0.070 C 
BRANCH  24  25
ATOM     25  CG  PHE A   2      16.373   9.394 -10.718  1.00  0.00    -0.045 A 
ATOM     26  CD1 PHE A   2      16.446   9.554 -12.113  1.00  0.00     0.004 A 
ATOM     27  CD2 PHE A   2      15.309   8.661 -10.165  1.00  0.00     0.004 A 
ATOM     28  CE1 PHE A   2      15.477   8.979 -12.939  1.00  0.00     0.000 A 
ATOM     29  CE2 PHE A   2      14.342   8.087 -10.995  1.00  0.00     0.000 A 
ATOM     30  CZ  PHE A   2      14.425   8.247 -12.381  1.00  0.00     0.000 A 
ENDBRANCH  24  25
ENDBRANCH  12  24
ENDBRANCH  10  12
ENDBRANCH   6  10
ENDBRANCH   1   5
BRANCH   3  31
ATOM     31  CA  HIS A   4      21.341   8.760  -8.132  1.00  0.00     0.177 C 
BRANCH  31  32
ATOM     32  C   HIS A   4      22.708   9.211  -8.518  1.00  0.00     0.243 C 
ATOM     33  N   ARG A   5      23.819   8.711  -7.788  1.00  0.00    -0.343 N 
ATOM     34  O   HIS A   4      22.872  10.030  -9.464  1.00  0.00    -0.273 OA
ATOM     35  H   UNL     1      23.665   7.996  -7.041  1.00  0.00     0.164 HD
BRANCH  33  36
ATOM     36  CA  ARG A   5      25.182   9.119  -8.073  1.00  0.00     0.171 C 
BRANCH  36  37
ATOM     37  C   ARG A   5      25.899   7.967  -8.686  1.00  0.00     0.243 C 
ATOM     38  N   ASN A   6      25.912   7.864 -10.103  1.00  0.00    -0.341 N 
ATOM     39  O   ARG A   5      26.447   7.086  -7.970  1.00  0.00    -0.273 OA
ATOM     40  H   UNL     1      25.486   8.647 -10.651  1.00  0.00     0.164 HD
BRANCH  38  41
ATOM     41  CA  ASN A   6      26.542   6.751 -10.805  1.00  0.00     0.201 C 
BRANCH  41  42
ATOM     42  C   ASN A   6      27.992   6.643 -10.415  1.00  0.00     0.326 C 
ATOM     43  O   ASN A   6      28.794   7.579 -10.678  1.00  0.00    -0.250 OA
BRANCH  42  44
ATOM     44  OXT ASN A   6      28.450   5.501  -9.765  1.00  0.00    -0.480 OA
ATOM     45  H   UNL     1      29.422   5.411  -9.497  1.00  0.00     0.296 HD
ENDBRANCH  42  44
ENDBRANCH  41  42
BRANCH  41  46
ATOM     46  CB  ASN A   6      26.427   6.949 -12.325  1.00  0.00     0.136 C 
BRANCH  46  47
ATOM     47  CG  ASN A   6      25.014   7.184 -12.776  1.00  0.00     0.220 C 
ATOM     48  ND2 ASN A   6      24.757   8.092 -13.837  1.00  0.00    -0.370 N 
ATOM     49  OD1 ASN A   6      24.057   6.566 -12.243  1.00  0.00    -0.275 OA
ATOM     50  H   UNL     1      23.778   8.260 -14.160  1.00  0.00     0.159 HD
ATOM     51  H   UNL     1      25.536   8.600 -14.312  1.00  0.00     0.159 HD
ENDBRANCH  46  47
ENDBRANCH  41  46
ENDBRANCH  38  41
ENDBRANCH  36  37
BRANCH  36  52
ATOM     52  CB  ARG A   5      25.859   9.601  -6.795  1.00  0.00     0.037 C 
BRANCH  52  53
ATOM     53  CG  ARG A   5      25.166  10.859  -6.270  1.00  0.00     0.024 C 
BRANCH  53  54
ATOM     54  CD  ARG A   5      25.843  11.390  -5.014  1.00  0.00     0.116 C 
BRANCH  54  55
ATOM     55  NE  ARG A   5      25.380  10.687  -3.820  1.00  0.00    -0.357 N 
ATOM     56  CZ  ARG A   5      25.470  11.282  -2.526  1.00  0.00     0.185 C 
ATOM     57  NH2 ARG A   5      26.109  12.545  -2.349  1.00  0.00    -0.370 N 
ATOM     58  H   UNL     1      24.900   9.763  -3.913  1.00  0.00     0.163 HD
ATOM     59  H   UNL     1      26.700  12.981  -3.089  1.00  0.00     0.159 HD
ATOM     60  H   UNL     1      26.085  13.020  -1.419  1.00  0.00     0.159 HD
BRANCH  56  61
ATOM     61  NH1 ARG A   5      24.953  10.672  -1.508  1.00  0.00    -0.270 NA
ATOM     62  H   UNL     1      24.989  11.077  -0.545  1.00  0.00     0.191 HD
ENDBRANCH  56  61
ENDBRANCH  54  55
ENDBRANCH  53  54
ENDBRANCH  52  53
ENDBRANCH  36  52
ENDBRANCH  33  36
ENDBRANCH  31  32
BRANCH  31  63
ATOM     63  CB  HIS A   4      20.651   8.010  -9.279  1.00  0.00     0.093 C 
BRANCH  63  64
ATOM     64  CG  HIS A   4      21.392   6.779  -9.738  1.00  0.00     0.061 A 
ATOM     65  ND1 HIS A   4      21.232   6.250 -10.968  1.00  0.00    -0.242 NA
ATOM     66  CD2 HIS A   4      22.108   5.897  -8.950  1.00  0.00     0.107 A 
ATOM     67  CE1 HIS A   4      21.888   5.072 -10.911  1.00  0.00     0.196 A 
ATOM     68  NE2 HIS A   4      22.430   4.835  -9.703  1.00  0.00    -0.351 N 
ATOM     69  H   UNL     1      22.964   3.989  -9.407  1.00  0.00     0.167 HD
ENDBRANCH  63  64
ENDBRANCH  31  63
ENDBRANCH   3  31
TORSDOF 26
