REMARK SMILES CC(C)C[C@H](NC(=O)[C@@H](NC(=O)[C@H](C)NC(=O)[C@@H](N)CO)C(C)C)C(=O)N[C@@H](CCCNC(=N)N)C(=O)N[C@@H](CC(N)=O)C(=O)O
REMARK SMILES IDX 7 1 8 2 6 3 9 5 10 6 11 7 12 8 13 10 14 11 15 12 16 13 17 14
REMARK SMILES IDX 18 16 19 17 20 20 21 21 22 23 23 24 24 25 5 26 25 27 27 28
REMARK SMILES IDX 26 29 28 31 36 32 38 33 37 34 39 36 44 37 45 38 46 39 40 41
REMARK SMILES IDX 41 42 42 43 43 44 29 47 30 48 31 49 32 50 33 51 35 52 34 56
REMARK SMILES IDX 4 58 2 59 1 60 3 61
REMARK H PARENT 6 4 10 9 15 15 19 18 19 19 21 22 27 30 38 35 46 40 42 45 42 46
REMARK H PARENT 32 53 35 54 35 55 34 57
ROOT
ATOM      1  C   VAL A   3      20.047  10.087  -6.458  1.00  0.00     0.243 C 
ATOM      2  O   VAL A   3      20.173   9.173  -5.596  1.00  0.00    -0.273 OA
ATOM      3  N   LEU A   4      20.564   9.921  -7.769  1.00  0.00    -0.343 N 
ATOM      4  H   UNL     1      20.398  10.663  -8.488  1.00  0.00     0.164 HD
ENDROOT
BRANCH   1   5
ATOM      5  CA  VAL A   3      19.325  11.351  -6.126  1.00  0.00     0.174 C 
BRANCH   5   6
ATOM      6  N   VAL A   3      18.061  11.006  -5.516  1.00  0.00    -0.342 N 
ATOM      7  C   ALA A   2      16.870  11.746  -5.738  1.00  0.00     0.242 C 
ATOM      8  O   ALA A   2      16.893  12.793  -6.443  1.00  0.00    -0.273 OA
ATOM      9  H   UNL     1      18.084  10.303  -4.746  1.00  0.00     0.164 HD
BRANCH   7  10
ATOM     10  CA  ALA A   2      15.615  11.296  -5.040  1.00  0.00     0.168 C 
ATOM     11  CB  ALA A   2      15.561   9.765  -4.900  1.00  0.00     0.041 C 
BRANCH  10  12
ATOM     12  N   ALA A   2      14.438  11.734  -5.770  1.00  0.00    -0.343 N 
ATOM     13  C   SER A   1      13.908  13.048  -5.640  1.00  0.00     0.239 C 
ATOM     14  O   SER A   1      14.441  13.866  -4.839  1.00  0.00    -0.273 OA
ATOM     15  H   UNL     1      13.857  11.001  -6.232  1.00  0.00     0.164 HD
BRANCH  13  16
ATOM     16  CA  SER A   1      12.657  13.414  -6.394  1.00  0.00     0.167 C 
BRANCH  16  17
ATOM     17  N   SER A   1      12.475  14.867  -6.375  1.00  0.00    -0.318 NA
ATOM     18  H   UNL     1      11.523  15.096  -6.742  1.00  0.00     0.119 HD
ATOM     19  H   UNL     1      13.178  15.318  -7.006  1.00  0.00     0.119 HD
ENDBRANCH  16  17
BRANCH  16  20
ATOM     20  CB  SER A   1      12.686  12.885  -7.849  1.00  0.00     0.184 C 
BRANCH  20  21
ATOM     21  OG  SER A   1      11.433  13.049  -8.452  1.00  0.00    -0.394 OA
ATOM     22  H   UNL     1      11.437  13.939  -8.891  1.00  0.00     0.210 HD
ENDBRANCH  20  21
ENDBRANCH  16  20
ENDBRANCH  13  16
ENDBRANCH  10  12
ENDBRANCH   7  10
ENDBRANCH   5   6
BRANCH   5  23
ATOM     23  CB  VAL A   3      20.133  12.278  -5.191  1.00  0.00     0.015 C 
ATOM     24  CG1 VAL A   3      20.432  11.667  -3.810  1.00  0.00     0.010 C 
ATOM     25  CG2 VAL A   3      21.431  12.755  -5.860  1.00  0.00     0.010 C 
ENDBRANCH   5  23
ENDBRANCH   1   5
BRANCH   3  26
ATOM     26  CA  LEU A   4      21.348   8.760  -8.139  1.00  0.00     0.171 C 
BRANCH  26  27
ATOM     27  C   LEU A   4      22.713   9.217  -8.520  1.00  0.00     0.243 C 
ATOM     28  N   ARG A   5      23.823   8.721  -7.785  1.00  0.00    -0.343 N 
ATOM     29  O   LEU A   4      22.877  10.033  -9.467  1.00  0.00    -0.273 OA
ATOM     30  H   UNL     1      23.668   8.032  -7.014  1.00  0.00     0.164 HD
BRANCH  28  31
ATOM     31  CA  ARG A   5      25.187   9.122  -8.074  1.00  0.00     0.171 C 
BRANCH  31  32
ATOM     32  C   ARG A   5      25.900   7.967  -8.686  1.00  0.00     0.243 C 
ATOM     33  N   ASN A   6      25.913   7.864 -10.103  1.00  0.00    -0.341 N 
ATOM     34  O   ARG A   5      26.447   7.086  -7.970  1.00  0.00    -0.273 OA
ATOM     35  H   UNL     1      25.489   8.647 -10.651  1.00  0.00     0.164 HD
BRANCH  33  36
ATOM     36  CA  ASN A   6      26.542   6.750 -10.804  1.00  0.00     0.201 C 
BRANCH  36  37
ATOM     37  C   ASN A   6      27.993   6.642 -10.416  1.00  0.00     0.326 C 
ATOM     38  O   ASN A   6      28.794   7.579 -10.677  1.00  0.00    -0.250 OA
BRANCH  37  39
ATOM     39  OXT ASN A   6      28.451   5.499  -9.769  1.00  0.00    -0.480 OA
ATOM     40  H   UNL     1      29.424   5.409  -9.500  1.00  0.00     0.296 HD
ENDBRANCH  37  39
ENDBRANCH  36  37
BRANCH  36  41
ATOM     41  CB  ASN A   6      26.424   6.946 -12.324  1.00  0.00     0.136 C 
BRANCH  41  42
ATOM     42  CG  ASN A   6      25.010   7.180 -12.773  1.00  0.00     0.220 C 
ATOM     43  ND2 ASN A   6      24.753   8.090 -13.833  1.00  0.00    -0.370 N 
ATOM     44  OD1 ASN A   6      24.053   6.558 -12.243  1.00  0.00    -0.275 OA
ATOM     45  H   UNL     1      25.533   8.600 -14.306  1.00  0.00     0.159 HD
ATOM     46  H   UNL     1      23.774   8.258 -14.156  1.00  0.00     0.159 HD
ENDBRANCH  41  42
ENDBRANCH  36  41
ENDBRANCH  33  36
ENDBRANCH  31  32
BRANCH  31  47
ATOM     47  CB  ARG A   5      25.867   9.606  -6.798  1.00  0.00     0.037 C 
BRANCH  47  48
ATOM     48  CG  ARG A   5      25.167  10.856  -6.270  1.00  0.00     0.024 C 
BRANCH  48  49
ATOM     49  CD  ARG A   5      25.841  11.390  -5.015  1.00  0.00     0.116 C 
BRANCH  49  50
ATOM     50  NE  ARG A   5      25.379  10.684  -3.822  1.00  0.00    -0.357 N 
ATOM     51  CZ  ARG A   5      25.468  11.279  -2.527  1.00  0.00     0.185 C 
ATOM     52  NH2 ARG A   5      26.106  12.542  -2.350  1.00  0.00    -0.370 N 
ATOM     53  H   UNL     1      24.907   9.755  -3.920  1.00  0.00     0.163 HD
ATOM     54  H   UNL     1      26.083  13.007  -1.415  1.00  0.00     0.159 HD
ATOM     55  H   UNL     1      26.691  12.984  -3.091  1.00  0.00     0.159 HD
BRANCH  51  56
ATOM     56  NH1 ARG A   5      24.958  10.679  -1.499  1.00  0.00    -0.270 NA
ATOM     57  H   UNL     1      24.478   9.756  -1.583  1.00  0.00     0.191 HD
ENDBRANCH  51  56
ENDBRANCH  49  50
ENDBRANCH  48  49
ENDBRANCH  47  48
ENDBRANCH  31  47
ENDBRANCH  28  31
ENDBRANCH  26  27
BRANCH  26  58
ATOM     58  CB  LEU A   4      20.655   8.000  -9.271  1.00  0.00     0.038 C 
BRANCH  58  59
ATOM     59  CG  LEU A   4      21.448   6.771  -9.768  1.00  0.00    -0.015 C 
ATOM     60  CD1 LEU A   4      21.762   5.779  -8.639  1.00  0.00     0.007 C 
ATOM     61  CD2 LEU A   4      20.661   6.068 -10.877  1.00  0.00     0.007 C 
ENDBRANCH  58  59
ENDBRANCH  26  58
ENDBRANCH   3  26
TORSDOF 25
