REMARK SMILES CC(C)C[C@H](NC(=O)[C@H](CCCCN)NC(=O)[C@H](Cc1ccccc1)NC(=O)[C@H](C)N)C(=O)N[C@@H](CCCNC(=N)N)C(=O)N[C@@H](CC(N)=O)C(=O)O
REMARK SMILES IDX 5 1 6 2 7 3 8 4 9 6 15 7 16 8 17 9 18 11 26 12 27 13 28 14
REMARK SMILES IDX 29 16 30 17 31 18 19 21 20 22 21 23 25 24 22 25 24 26 23 27
REMARK SMILES IDX 10 28 11 29 12 30 13 31 14 32 32 35 34 36 33 37 35 39 43 40
REMARK SMILES IDX 45 41 44 42 46 44 51 45 52 46 53 47 47 49 48 50 49 51 50 52
REMARK SMILES IDX 36 55 37 56 38 57 39 58 40 59 42 60 41 64 4 66 2 67 1 68
REMARK SMILES IDX 3 69
REMARK H PARENT 6 5 15 10 26 15 31 19 31 20 14 33 14 34 34 38 45 43 53 48
REMARK H PARENT 49 53 49 54 39 61 42 62 42 63 41 65
ROOT
ATOM      1  CA  LEU A   4      -0.600  -2.333  -0.176  1.00  0.00     0.171 C 
ENDROOT
BRANCH   1   2
ATOM      2  N   LEU A   4       0.671  -1.929   0.440  1.00  0.00    -0.343 N 
ATOM      3  C   LYS A   3       1.220  -0.609   0.280  1.00  0.00     0.243 C 
ATOM      4  O   LYS A   3       0.603   0.252  -0.412  1.00  0.00    -0.273 OA
ATOM      5  H   UNL     1       1.224  -2.631   0.984  1.00  0.00     0.164 HD
BRANCH   3   6
ATOM      6  CA  LYS A   3       2.525  -0.242   0.943  1.00  0.00     0.171 C 
BRANCH   6   7
ATOM      7  N   LYS A   3       3.070   0.972   0.326  1.00  0.00    -0.343 N 
ATOM      8  C   PHE A   2       4.290   0.998  -0.425  1.00  0.00     0.243 C 
ATOM      9  O   PHE A   2       4.890  -0.077  -0.711  1.00  0.00    -0.273 OA
ATOM     10  H   UNL     1       2.559   1.874   0.470  1.00  0.00     0.164 HD
BRANCH   8  11
ATOM     11  CA  PHE A   2       4.829   2.321  -0.910  1.00  0.00     0.175 C 
BRANCH  11  12
ATOM     12  N   PHE A   2       6.281   2.248  -1.100  1.00  0.00    -0.343 N 
ATOM     13  C   ALA A   1       7.196   2.426  -0.012  1.00  0.00     0.237 C 
ATOM     14  O   ALA A   1       6.768   2.754   1.129  1.00  0.00    -0.273 OA
ATOM     15  H   UNL     1       6.655   1.895  -2.009  1.00  0.00     0.164 HD
BRANCH  13  16
ATOM     16  CA  ALA A   1       8.670   2.187  -0.207  1.00  0.00     0.138 C 
ATOM     17  CB  ALA A   1       9.096   0.933   0.563  1.00  0.00     0.035 C 
BRANCH  16  18
ATOM     18  N   ALA A   1       9.430   3.348   0.257  1.00  0.00    -0.320 NA
ATOM     19  H   UNL     1      10.441   3.180   0.040  1.00  0.00     0.119 HD
ATOM     20  H   UNL     1       9.149   4.175  -0.319  1.00  0.00     0.119 HD
ENDBRANCH  16  18
ENDBRANCH  13  16
ENDBRANCH  11  12
BRANCH  11  21
ATOM     21  CB  PHE A   2       4.116   2.806  -2.190  1.00  0.00     0.070 C 
BRANCH  21  22
ATOM     22  CG  PHE A   2       4.130   1.803  -3.321  1.00  0.00    -0.045 A 
ATOM     23  CD1 PHE A   2       3.141   0.811  -3.398  1.00  0.00     0.004 A 
ATOM     24  CD2 PHE A   2       5.137   1.842  -4.302  1.00  0.00     0.004 A 
ATOM     25  CE1 PHE A   2       3.153  -0.123  -4.437  1.00  0.00     0.000 A 
ATOM     26  CE2 PHE A   2       5.143   0.910  -5.344  1.00  0.00     0.000 A 
ATOM     27  CZ  PHE A   2       4.151  -0.072  -5.412  1.00  0.00     0.000 A 
ENDBRANCH  21  22
ENDBRANCH  11  21
ENDBRANCH   8  11
ENDBRANCH   6   7
BRANCH   6  28
ATOM     28  CB  LYS A   3       2.354   0.009   2.456  1.00  0.00     0.035 C 
BRANCH  28  29
ATOM     29  CG  LYS A   3       2.149  -1.286   3.264  1.00  0.00     0.004 C 
BRANCH  29  30
ATOM     30  CD  LYS A   3       2.381  -1.088   4.769  1.00  0.00     0.015 C 
BRANCH  30  31
ATOM     31  CE  LYS A   3       3.872  -1.079   5.140  1.00  0.00     0.077 C 
BRANCH  31  32
ATOM     32  NZ  LYS A   3       4.032  -0.927   6.582  1.00  0.00    -0.330 NA
ATOM     33  H   UNL     1       3.713  -1.808   7.042  1.00  0.00     0.118 HD
ATOM     34  H   UNL     1       5.056  -0.845   6.782  1.00  0.00     0.118 HD
ENDBRANCH  31  32
ENDBRANCH  30  31
ENDBRANCH  29  30
ENDBRANCH  28  29
ENDBRANCH   6  28
ENDBRANCH   3   6
ENDBRANCH   1   2
BRANCH   1  35
ATOM     35  C   LEU A   4      -1.714  -1.426   0.286  1.00  0.00     0.243 C 
ATOM     36  N   ARG A   5      -2.826  -1.167  -0.585  1.00  0.00    -0.343 N 
ATOM     37  O   LEU A   4      -1.680  -0.922   1.439  1.00  0.00    -0.273 OA
ATOM     38  H   UNL     1      -2.914  -1.777  -1.428  1.00  0.00     0.164 HD
BRANCH  36  39
ATOM     39  CA  ARG A   5      -3.600   0.082  -0.520  1.00  0.00     0.171 C 
BRANCH  39  40
ATOM     40  C   ARG A   5      -4.380   0.203   0.765  1.00  0.00     0.243 C 
ATOM     41  N   ASN A   6      -4.793   1.501   1.220  1.00  0.00    -0.341 N 
ATOM     42  O   ARG A   5      -4.693  -0.829   1.417  1.00  0.00    -0.273 OA
ATOM     43  H   UNL     1      -4.585   2.326   0.607  1.00  0.00     0.164 HD
BRANCH  41  44
ATOM     44  CA  ASN A   6      -5.560   1.703   2.451  1.00  0.00     0.201 C 
BRANCH  44  45
ATOM     45  C   ASN A   6      -6.998   1.338   2.213  1.00  0.00     0.326 C 
ATOM     46  O   ASN A   6      -7.664   1.921   1.317  1.00  0.00    -0.250 OA
BRANCH  45  47
ATOM     47  OXT ASN A   6      -7.604   0.360   3.000  1.00  0.00    -0.480 OA
ATOM     48  H   UNL     1      -8.570   0.096   2.840  1.00  0.00     0.296 HD
ENDBRANCH  45  47
ENDBRANCH  44  45
BRANCH  44  49
ATOM     49  CB  ASN A   6      -5.430   3.165   2.922  1.00  0.00     0.136 C 
BRANCH  49  50
ATOM     50  CG  ASN A   6      -6.128   3.394   4.232  1.00  0.00     0.220 C 
ATOM     51  ND2 ASN A   6      -7.476   3.871   4.262  1.00  0.00    -0.370 N 
ATOM     52  OD1 ASN A   6      -5.534   3.135   5.311  1.00  0.00    -0.275 OA
ATOM     53  H   UNL     1      -7.996   4.073   3.381  1.00  0.00     0.159 HD
ATOM     54  H   UNL     1      -7.970   3.992   5.178  1.00  0.00     0.159 HD
ENDBRANCH  49  50
ENDBRANCH  44  49
ENDBRANCH  41  44
ENDBRANCH  39  40
BRANCH  39  55
ATOM     55  CB  ARG A   5      -4.513   0.241  -1.756  1.00  0.00     0.037 C 
BRANCH  55  56
ATOM     56  CG  ARG A   5      -5.596  -0.854  -1.911  1.00  0.00     0.024 C 
BRANCH  56  57
ATOM     57  CD  ARG A   5      -6.963  -0.441  -1.347  1.00  0.00     0.116 C 
BRANCH  57  58
ATOM     58  NE  ARG A   5      -7.524   0.690  -2.086  1.00  0.00    -0.357 N 
ATOM     59  CZ  ARG A   5      -8.061   0.619  -3.418  1.00  0.00     0.185 C 
ATOM     60  NH2 ARG A   5      -8.447   1.824  -4.078  1.00  0.00    -0.370 N 
ATOM     61  H   UNL     1      -7.542   1.616  -1.599  1.00  0.00     0.163 HD
ATOM     62  H   UNL     1      -8.311   2.748  -3.618  1.00  0.00     0.159 HD
ATOM     63  H   UNL     1      -8.871   1.795  -5.029  1.00  0.00     0.159 HD
BRANCH  59  64
ATOM     64  NH1 ARG A   5      -8.222  -0.515  -4.030  1.00  0.00    -0.270 NA
ATOM     65  H   UNL     1      -7.976  -1.439  -3.616  1.00  0.00     0.191 HD
ENDBRANCH  59  64
ENDBRANCH  57  58
ENDBRANCH  56  57
ENDBRANCH  55  56
ENDBRANCH  39  55
ENDBRANCH  36  39
ENDBRANCH   1  35
BRANCH   1  66
ATOM     66  CB  LEU A   4      -0.946  -3.806   0.151  1.00  0.00     0.038 C 
BRANCH  66  67
ATOM     67  CG  LEU A   4      -0.289  -4.831  -0.808  1.00  0.00    -0.015 C 
ATOM     68  CD1 LEU A   4      -0.857  -6.232  -0.545  1.00  0.00     0.007 C 
ATOM     69  CD2 LEU A   4       1.243  -4.859  -0.683  1.00  0.00     0.007 C 
ENDBRANCH  66  67
ENDBRANCH   1  66
TORSDOF 29
