REMARK SMILES C[C@H](NC(=O)[C@H](Cc1ccccc1)NC(=O)[C@@H](N)CO)C(=O)N[C@@H](Cc1c[nH]cn1)C(=O)N[C@@H](CCCNC(=N)N)C(=O)N[C@@H](CC(N)=O)C(=O)O
REMARK SMILES IDX 21 1 22 2 23 3 2 5 1 6 3 7 4 8 5 9 6 11 14 12 15 13 16 14
REMARK SMILES IDX 17 16 18 17 19 20 20 21 7 23 8 24 9 25 13 26 10 27 12 28
REMARK SMILES IDX 11 29 24 30 31 31 33 32 32 33 34 35 42 36 44 37 43 38 45 40
REMARK SMILES IDX 50 41 51 42 52 43 46 45 47 46 48 47 49 48 35 51 36 52 37 53
REMARK SMILES IDX 38 54 39 55 41 56 40 60 25 62 26 63 30 64 27 65 29 66 28 67
REMARK H PARENT 23 4 3 10 14 15 18 18 18 19 20 22 33 34 44 39 52 44 48 49
REMARK H PARENT 48 50 38 57 41 58 41 59 40 61 28 68
ROOT
ATOM      1  C   ALA A   3       1.222   0.277  -0.689  1.00  0.00     0.242 C 
ATOM      2  O   ALA A   3       1.137  -0.902  -0.247  1.00  0.00    -0.273 OA
ATOM      3  N   HIS A   4       0.437   1.325  -0.106  1.00  0.00    -0.342 N 
ATOM      4  H   UNL     1       0.466   2.271  -0.555  1.00  0.00     0.164 HD
ENDROOT
BRANCH   1   5
ATOM      5  CA  ALA A   3       2.064   0.567  -1.903  1.00  0.00     0.168 C 
ATOM      6  CB  ALA A   3       1.189   0.509  -3.161  1.00  0.00     0.041 C 
BRANCH   5   7
ATOM      7  N   ALA A   3       3.168  -0.393  -2.005  1.00  0.00    -0.343 N 
ATOM      8  C   PHE A   2       4.365  -0.270  -1.223  1.00  0.00     0.243 C 
ATOM      9  O   PHE A   2       4.480   0.661  -0.378  1.00  0.00    -0.273 OA
ATOM     10  H   UNL     1       3.085  -1.195  -2.666  1.00  0.00     0.164 HD
BRANCH   8  11
ATOM     11  CA  PHE A   2       5.478  -1.273  -1.395  1.00  0.00     0.175 C 
BRANCH  11  12
ATOM     12  N   PHE A   2       6.788  -0.621  -1.289  1.00  0.00    -0.343 N 
ATOM     13  C   SER A   1       7.261   0.292  -2.293  1.00  0.00     0.239 C 
ATOM     14  O   SER A   1       6.483   0.684  -3.204  1.00  0.00    -0.273 OA
ATOM     15  H   UNL     1       7.435  -0.881  -0.513  1.00  0.00     0.164 HD
BRANCH  13  16
ATOM     16  CA  SER A   1       8.677   0.824  -2.256  1.00  0.00     0.167 C 
BRANCH  16  17
ATOM     17  N   SER A   1       8.859   1.745  -1.133  1.00  0.00    -0.318 NA
ATOM     18  H   UNL     1       8.572   1.283  -0.242  1.00  0.00     0.119 HD
ATOM     19  H   UNL     1       8.230   2.565  -1.275  1.00  0.00     0.119 HD
ENDBRANCH  16  17
BRANCH  16  20
ATOM     20  CB  SER A   1       9.718  -0.304  -2.190  1.00  0.00     0.184 C 
BRANCH  20  21
ATOM     21  OG  SER A   1       9.529  -1.218  -3.237  1.00  0.00    -0.394 OA
ATOM     22  H   UNL     1       9.903  -0.796  -4.053  1.00  0.00     0.210 HD
ENDBRANCH  20  21
ENDBRANCH  16  20
ENDBRANCH  13  16
ENDBRANCH  11  12
BRANCH  11  23
ATOM     23  CB  PHE A   2       5.337  -2.459  -0.414  1.00  0.00     0.070 C 
BRANCH  23  24
ATOM     24  CG  PHE A   2       5.440  -2.077   1.044  1.00  0.00    -0.045 A 
ATOM     25  CD1 PHE A   2       6.662  -2.205   1.726  1.00  0.00     0.004 A 
ATOM     26  CD2 PHE A   2       4.312  -1.607   1.740  1.00  0.00     0.004 A 
ATOM     27  CE1 PHE A   2       6.759  -1.851   3.075  1.00  0.00     0.000 A 
ATOM     28  CE2 PHE A   2       4.413  -1.250   3.088  1.00  0.00     0.000 A 
ATOM     29  CZ  PHE A   2       5.634  -1.375   3.755  1.00  0.00     0.000 A 
ENDBRANCH  23  24
ENDBRANCH  11  23
ENDBRANCH   8  11
ENDBRANCH   5   7
ENDBRANCH   1   5
BRANCH   3  30
ATOM     30  CA  HIS A   4      -0.599   1.065   0.902  1.00  0.00     0.177 C 
BRANCH  30  31
ATOM     31  C   HIS A   4      -1.878   0.625   0.216  1.00  0.00     0.243 C 
ATOM     32  N   ARG A   5      -3.140   0.628   0.915  1.00  0.00    -0.343 N 
ATOM     33  O   HIS A   4      -1.820   0.189  -0.967  1.00  0.00    -0.273 OA
ATOM     34  H   UNL     1      -3.160   0.900   1.919  1.00  0.00     0.164 HD
BRANCH  32  35
ATOM     35  CA  ARG A   5      -4.436   0.262   0.322  1.00  0.00     0.171 C 
BRANCH  35  36
ATOM     36  C   ARG A   5      -4.545  -1.233   0.145  1.00  0.00     0.243 C 
ATOM     37  N   ASN A   6      -5.766  -1.907   0.480  1.00  0.00    -0.341 N 
ATOM     38  O   ARG A   5      -3.571  -1.889  -0.317  1.00  0.00    -0.273 OA
ATOM     39  H   UNL     1      -6.605  -1.329   0.723  1.00  0.00     0.164 HD
BRANCH  37  40
ATOM     40  CA  ASN A   6      -5.926  -3.357   0.346  1.00  0.00     0.201 C 
BRANCH  40  41
ATOM     41  C   ASN A   6      -6.320  -3.694  -1.064  1.00  0.00     0.326 C 
ATOM     42  O   ASN A   6      -7.272  -3.084  -1.623  1.00  0.00    -0.250 OA
BRANCH  41  43
ATOM     43  OXT ASN A   6      -5.641  -4.698  -1.749  1.00  0.00    -0.480 OA
ATOM     44  H   UNL     1      -5.899  -4.946  -2.698  1.00  0.00     0.296 HD
ENDBRANCH  41  43
ENDBRANCH  40  41
BRANCH  40  45
ATOM     45  CB  ASN A   6      -6.973  -3.866   1.353  1.00  0.00     0.136 C 
BRANCH  45  46
ATOM     46  CG  ASN A   6      -7.039  -5.367   1.380  1.00  0.00     0.220 C 
ATOM     47  ND2 ASN A   6      -8.191  -6.048   0.880  1.00  0.00    -0.370 N 
ATOM     48  OD1 ASN A   6      -6.072  -6.032   1.840  1.00  0.00    -0.275 OA
ATOM     49  H   UNL     1      -8.236  -7.090   0.909  1.00  0.00     0.159 HD
ATOM     50  H   UNL     1      -8.984  -5.521   0.447  1.00  0.00     0.159 HD
ENDBRANCH  45  46
ENDBRANCH  40  45
ENDBRANCH  37  40
ENDBRANCH  35  36
BRANCH  35  51
ATOM     51  CB  ARG A   5      -4.738   1.002  -1.003  1.00  0.00     0.037 C 
BRANCH  51  52
ATOM     52  CG  ARG A   5      -4.522   2.529  -0.940  1.00  0.00     0.024 C 
BRANCH  52  53
ATOM     53  CD  ARG A   5      -5.539   3.262  -0.050  1.00  0.00     0.116 C 
BRANCH  53  54
ATOM     54  NE  ARG A   5      -6.884   3.238  -0.631  1.00  0.00    -0.357 N 
ATOM     55  CZ  ARG A   5      -8.033   3.827   0.002  1.00  0.00     0.185 C 
ATOM     56  NH2 ARG A   5      -9.304   3.744  -0.642  1.00  0.00    -0.370 N 
ATOM     57  H   UNL     1      -7.026   2.797  -1.568  1.00  0.00     0.163 HD
ATOM     58  H   UNL     1     -10.149   4.184  -0.211  1.00  0.00     0.159 HD
ATOM     59  H   UNL     1      -9.399   3.276  -1.569  1.00  0.00     0.159 HD
BRANCH  55  60
ATOM     60  NH1 ARG A   5      -7.942   4.436   1.144  1.00  0.00    -0.270 NA
ATOM     61  H   UNL     1      -7.047   4.539   1.673  1.00  0.00     0.191 HD
ENDBRANCH  55  60
ENDBRANCH  53  54
ENDBRANCH  52  53
ENDBRANCH  51  52
ENDBRANCH  35  51
ENDBRANCH  32  35
ENDBRANCH  30  31
BRANCH  30  62
ATOM     62  CB  HIS A   4      -0.800   2.327   1.771  1.00  0.00     0.093 C 
BRANCH  62  63
ATOM     63  CG  HIS A   4       0.501   2.793   2.359  1.00  0.00     0.061 A 
ATOM     64  ND1 HIS A   4       1.178   2.127   3.316  1.00  0.00    -0.242 NA
ATOM     65  CD2 HIS A   4       1.206   3.915   1.979  1.00  0.00     0.107 A 
ATOM     66  CE1 HIS A   4       2.291   2.870   3.504  1.00  0.00     0.196 A 
ATOM     67  NE2 HIS A   4       2.332   3.956   2.710  1.00  0.00    -0.351 N 
ATOM     68  H   UNL     1       3.081   4.681   2.670  1.00  0.00     0.167 HD
ENDBRANCH  62  63
ENDBRANCH  30  62
ENDBRANCH   3  30
TORSDOF 26
