REMARK SMILES CC(C)[C@H](NC(=O)[C@H](CO)NC(=O)[C@H](Cc1ccccc1)NC(=O)[C@@H](N)CO)C(=O)N[C@@H](CCCNC(=N)N)C(=O)N[C@@H](CC(N)=O)C(=O)O
REMARK SMILES IDX 6 1 7 2 5 3 8 5 11 6 12 7 13 8 14 10 22 11 23 12 24 13 25 15
REMARK SMILES IDX 26 16 27 19 28 20 15 22 16 23 17 24 21 25 18 26 20 27 19 28
REMARK SMILES IDX 9 29 10 30 4 32 29 33 31 34 30 35 32 37 40 38 42 39 41 40
REMARK SMILES IDX 43 42 48 43 49 44 50 45 44 47 45 48 46 49 47 50 33 53 34 54
REMARK SMILES IDX 35 55 36 56 37 57 39 58 38 62 2 64 1 65 3 66
REMARK H PARENT 5 4 11 9 22 14 26 17 26 18 28 21 10 31 31 36 42 41 50 46 46 51
REMARK H PARENT 46 52 36 59 39 60 39 61 38 63
ROOT
ATOM      1  C   SER A   3      20.049  10.098  -6.462  1.00  0.00     0.245 C 
ATOM      2  O   SER A   3      20.176   9.195  -5.588  1.00  0.00    -0.273 OA
ATOM      3  N   VAL A   4      20.567   9.918  -7.771  1.00  0.00    -0.342 N 
ATOM      4  H   UNL     1      20.404  10.657  -8.493  1.00  0.00     0.164 HD
ENDROOT
BRANCH   1   5
ATOM      5  CA  SER A   3      19.343  11.373  -6.146  1.00  0.00     0.197 C 
BRANCH   5   6
ATOM      6  N   SER A   3      18.096  11.057  -5.497  1.00  0.00    -0.340 N 
ATOM      7  C   PHE A   2      16.888  11.750  -5.775  1.00  0.00     0.243 C 
ATOM      8  O   PHE A   2      16.899  12.790  -6.489  1.00  0.00    -0.273 OA
ATOM      9  H   UNL     1      18.188  10.554  -4.588  1.00  0.00     0.164 HD
BRANCH   7  10
ATOM     10  CA  PHE A   2      15.653  11.315  -5.060  1.00  0.00     0.175 C 
BRANCH  10  11
ATOM     11  N   PHE A   2      14.456  11.740  -5.770  1.00  0.00    -0.343 N 
ATOM     12  C   SER A   1      13.914  13.050  -5.637  1.00  0.00     0.239 C 
ATOM     13  O   SER A   1      14.442  13.869  -4.836  1.00  0.00    -0.273 OA
ATOM     14  H   UNL     1      13.873  11.000  -6.217  1.00  0.00     0.164 HD
BRANCH  12  15
ATOM     15  CA  SER A   1      12.660  13.411  -6.390  1.00  0.00     0.167 C 
BRANCH  15  16
ATOM     16  N   SER A   1      12.475  14.863  -6.375  1.00  0.00    -0.318 NA
ATOM     17  H   UNL     1      11.521  15.090  -6.739  1.00  0.00     0.119 HD
ATOM     18  H   UNL     1      13.175  15.314  -7.009  1.00  0.00     0.119 HD
ENDBRANCH  15  16
BRANCH  15  19
ATOM     19  CB  SER A   1      12.688  12.878  -7.844  1.00  0.00     0.184 C 
BRANCH  19  20
ATOM     20  OG  SER A   1      11.436  13.047  -8.450  1.00  0.00    -0.394 OA
ATOM     21  H   UNL     1      11.447  13.936  -8.892  1.00  0.00     0.210 HD
ENDBRANCH  19  20
ENDBRANCH  15  19
ENDBRANCH  12  15
ENDBRANCH  10  11
BRANCH  10  22
ATOM     22  CB  PHE A   2      15.619   9.776  -4.890  1.00  0.00     0.070 C 
BRANCH  22  23
ATOM     23  CG  PHE A   2      14.449   9.289  -4.089  1.00  0.00    -0.045 A 
ATOM     24  CD1 PHE A   2      13.906  10.047  -3.033  1.00  0.00     0.004 A 
ATOM     25  CD2 PHE A   2      13.972   7.990  -4.310  1.00  0.00     0.004 A 
ATOM     26  CE1 PHE A   2      12.870   9.536  -2.261  1.00  0.00     0.000 A 
ATOM     27  CE2 PHE A   2      12.941   7.478  -3.522  1.00  0.00     0.000 A 
ATOM     28  CZ  PHE A   2      12.387   8.253  -2.503  1.00  0.00     0.000 A 
ENDBRANCH  22  23
ENDBRANCH  10  22
ENDBRANCH   7  10
ENDBRANCH   5   6
BRANCH   5  29
ATOM     29  CB  SER A   3      20.188  12.244  -5.219  1.00  0.00     0.191 C 
BRANCH  29  30
ATOM     30  OG  SER A   3      19.539  13.463  -4.983  1.00  0.00    -0.394 OA
ATOM     31  H   UNL     1      20.132  13.978  -4.377  1.00  0.00     0.210 HD
ENDBRANCH  29  30
ENDBRANCH   5  29
ENDBRANCH   1   5
BRANCH   3  32
ATOM     32  CA  VAL A   4      21.337   8.747  -8.149  1.00  0.00     0.174 C 
BRANCH  32  33
ATOM     33  C   VAL A   4      22.707   9.206  -8.522  1.00  0.00     0.243 C 
ATOM     34  N   ARG A   5      23.817   8.707  -7.789  1.00  0.00    -0.343 N 
ATOM     35  O   VAL A   4      22.873  10.031  -9.463  1.00  0.00    -0.273 OA
ATOM     36  H   UNL     1      23.662   7.981  -7.052  1.00  0.00     0.164 HD
BRANCH  34  37
ATOM     37  CA  ARG A   5      25.180   9.117  -8.072  1.00  0.00     0.171 C 
BRANCH  37  38
ATOM     38  C   ARG A   5      25.900   7.967  -8.686  1.00  0.00     0.243 C 
ATOM     39  N   ASN A   6      25.914   7.865 -10.103  1.00  0.00    -0.341 N 
ATOM     40  O   ARG A   5      26.449   7.087  -7.970  1.00  0.00    -0.273 OA
ATOM     41  H   UNL     1      25.491   8.649 -10.651  1.00  0.00     0.164 HD
BRANCH  39  42
ATOM     42  CA  ASN A   6      26.542   6.751 -10.804  1.00  0.00     0.201 C 
BRANCH  42  43
ATOM     43  C   ASN A   6      27.993   6.642 -10.416  1.00  0.00     0.326 C 
ATOM     44  O   ASN A   6      28.794   7.579 -10.677  1.00  0.00    -0.250 OA
BRANCH  43  45
ATOM     45  OXT ASN A   6      28.452   5.498  -9.770  1.00  0.00    -0.480 OA
ATOM     46  H   UNL     1      29.425   5.408  -9.502  1.00  0.00     0.296 HD
ENDBRANCH  43  45
ENDBRANCH  42  43
BRANCH  42  47
ATOM     47  CB  ASN A   6      26.425   6.947 -12.324  1.00  0.00     0.136 C 
BRANCH  47  48
ATOM     48  CG  ASN A   6      25.010   7.181 -12.773  1.00  0.00     0.220 C 
ATOM     49  ND2 ASN A   6      24.754   8.091 -13.834  1.00  0.00    -0.370 N 
ATOM     50  OD1 ASN A   6      24.053   6.559 -12.242  1.00  0.00    -0.275 OA
ATOM     51  H   UNL     1      23.775   8.258 -14.157  1.00  0.00     0.159 HD
ATOM     52  H   UNL     1      25.533   8.599 -14.307  1.00  0.00     0.159 HD
ENDBRANCH  47  48
ENDBRANCH  42  47
ENDBRANCH  39  42
ENDBRANCH  37  38
BRANCH  37  53
ATOM     53  CB  ARG A   5      25.856   9.600  -6.793  1.00  0.00     0.037 C 
BRANCH  53  54
ATOM     54  CG  ARG A   5      25.164  10.858  -6.270  1.00  0.00     0.024 C 
BRANCH  54  55
ATOM     55  CD  ARG A   5      25.840  11.389  -5.014  1.00  0.00     0.116 C 
BRANCH  55  56
ATOM     56  NE  ARG A   5      25.377  10.686  -3.820  1.00  0.00    -0.357 N 
ATOM     57  CZ  ARG A   5      25.470  11.282  -2.527  1.00  0.00     0.185 C 
ATOM     58  NH2 ARG A   5      26.109  12.546  -2.352  1.00  0.00    -0.370 N 
ATOM     59  H   UNL     1      24.897   9.762  -3.911  1.00  0.00     0.163 HD
ATOM     60  H   UNL     1      26.698  12.981  -3.094  1.00  0.00     0.159 HD
ATOM     61  H   UNL     1      26.084  13.022  -1.423  1.00  0.00     0.159 HD
BRANCH  57  62
ATOM     62  NH1 ARG A   5      24.956  10.671  -1.506  1.00  0.00    -0.270 NA
ATOM     63  H   UNL     1      24.999  11.075  -0.544  1.00  0.00     0.191 HD
ENDBRANCH  57  62
ENDBRANCH  55  56
ENDBRANCH  54  55
ENDBRANCH  53  54
ENDBRANCH  37  53
ENDBRANCH  34  37
ENDBRANCH  32  33
BRANCH  32  64
ATOM     64  CB  VAL A   4      20.643   7.999  -9.305  1.00  0.00     0.015 C 
ATOM     65  CG1 VAL A   4      21.451   6.772  -9.752  1.00  0.00     0.010 C 
ATOM     66  CG2 VAL A   4      19.224   7.561  -8.907  1.00  0.00     0.010 C 
ENDBRANCH  32  64
ENDBRANCH   3  32
TORSDOF 27
