REMARK SMILES CC(C)C[C@H](NC(=O)CNC(=O)[C@@H](N)CO)C(=O)N[C@@H](Cc1ccc(O)cc1)C(=O)N[C@@H](CCCNC(=N)N)C(=O)N[C@@H](CC(N)=O)C(=O)O
REMARK SMILES IDX 17 1 18 2 19 3 5 5 6 6 7 7 8 8 9 10 10 11 11 12 12 13 13 15
REMARK SMILES IDX 14 16 15 19 16 20 4 22 2 23 1 24 3 25 20 26 29 27 31 28
REMARK SMILES IDX 30 29 32 31 40 32 42 33 41 34 43 36 48 37 49 38 50 39 44 41
REMARK SMILES IDX 45 42 46 43 47 44 33 47 34 48 35 49 36 50 37 51 39 52 38 56
REMARK SMILES IDX 21 58 22 59 23 60 28 61 24 62 27 63 25 64 26 65
REMARK H PARENT 19 4 6 9 10 14 14 17 14 18 16 21 31 30 42 35 50 40 46 45 46 46
REMARK H PARENT 36 53 39 54 39 55 38 57 26 66
ROOT
ATOM      1  C   LEU A   3      20.045  10.063  -6.474  1.00  0.00     0.243 C 
ATOM      2  O   LEU A   3      20.174   9.141  -5.623  1.00  0.00    -0.273 OA
ATOM      3  N   TYR A   4      20.560   9.905  -7.787  1.00  0.00    -0.342 N 
ATOM      4  H   UNL     1      20.396  10.655  -8.498  1.00  0.00     0.164 HD
ENDROOT
BRANCH   1   5
ATOM      5  CA  LEU A   3      19.311  11.320  -6.133  1.00  0.00     0.171 C 
BRANCH   5   6
ATOM      6  N   LEU A   3      18.034  10.977  -5.539  1.00  0.00    -0.343 N 
ATOM      7  C   GLY A   2      16.868  11.757  -5.740  1.00  0.00     0.240 C 
ATOM      8  O   GLY A   2      16.905  12.807  -6.441  1.00  0.00    -0.273 OA
ATOM      9  H   UNL     1      17.989  10.184  -4.858  1.00  0.00     0.164 HD
BRANCH   7  10
ATOM     10  CA  GLY A   2      15.631  11.332  -5.024  1.00  0.00     0.216 C 
BRANCH  10  11
ATOM     11  N   GLY A   2      14.438  11.727  -5.743  1.00  0.00    -0.346 N 
ATOM     12  C   SER A   1      13.907  13.044  -5.632  1.00  0.00     0.239 C 
ATOM     13  O   SER A   1      14.447  13.871  -4.845  1.00  0.00    -0.273 OA
ATOM     14  H   UNL     1      13.854  10.961  -6.143  1.00  0.00     0.164 HD
BRANCH  12  15
ATOM     15  CA  SER A   1      12.651  13.406  -6.382  1.00  0.00     0.167 C 
BRANCH  15  16
ATOM     16  N   SER A   1      12.468  14.859  -6.387  1.00  0.00    -0.318 NA
ATOM     17  H   UNL     1      11.585  15.085  -6.901  1.00  0.00     0.119 HD
ATOM     18  H   UNL     1      12.302  15.176  -5.404  1.00  0.00     0.119 HD
ENDBRANCH  15  16
BRANCH  15  19
ATOM     19  CB  SER A   1      12.696  12.881  -7.836  1.00  0.00     0.184 C 
BRANCH  19  20
ATOM     20  OG  SER A   1      11.446  13.031  -8.451  1.00  0.00    -0.394 OA
ATOM     21  H   UNL     1      10.854  12.331  -8.070  1.00  0.00     0.210 HD
ENDBRANCH  19  20
ENDBRANCH  15  19
ENDBRANCH  12  15
ENDBRANCH  10  11
ENDBRANCH   7  10
ENDBRANCH   5   6
BRANCH   5  22
ATOM     22  CB  LEU A   3      20.133  12.234  -5.212  1.00  0.00     0.038 C 
BRANCH  22  23
ATOM     23  CG  LEU A   3      20.405  11.667  -3.792  1.00  0.00    -0.015 C 
ATOM     24  CD1 LEU A   3      21.806  12.070  -3.322  1.00  0.00     0.007 C 
ATOM     25  CD2 LEU A   3      19.353  12.144  -2.784  1.00  0.00     0.007 C 
ENDBRANCH  22  23
ENDBRANCH   5  22
ENDBRANCH   1   5
BRANCH   3  26
ATOM     26  CA  TYR A   4      21.353   8.750  -8.174  1.00  0.00     0.175 C 
BRANCH  26  27
ATOM     27  C   TYR A   4      22.719   9.231  -8.509  1.00  0.00     0.243 C 
ATOM     28  N   ARG A   5      23.822   8.720  -7.778  1.00  0.00    -0.343 N 
ATOM     29  O   TYR A   4      22.892  10.056  -9.448  1.00  0.00    -0.273 OA
ATOM     30  H   UNL     1      23.662   7.992  -7.044  1.00  0.00     0.164 HD
BRANCH  28  31
ATOM     31  CA  ARG A   5      25.187   9.119  -8.067  1.00  0.00     0.171 C 
BRANCH  31  32
ATOM     32  C   ARG A   5      25.902   7.967  -8.684  1.00  0.00     0.243 C 
ATOM     33  N   ASN A   6      25.920   7.868 -10.102  1.00  0.00    -0.341 N 
ATOM     34  O   ARG A   5      26.448   7.084  -7.970  1.00  0.00    -0.273 OA
ATOM     35  H   UNL     1      25.494   8.651 -10.650  1.00  0.00     0.164 HD
BRANCH  33  36
ATOM     36  CA  ASN A   6      26.550   6.757 -10.807  1.00  0.00     0.201 C 
BRANCH  36  37
ATOM     37  C   ASN A   6      27.999   6.647 -10.417  1.00  0.00     0.326 C 
ATOM     38  O   ASN A   6      28.800   7.583 -10.678  1.00  0.00    -0.250 OA
BRANCH  37  39
ATOM     39  OXT ASN A   6      28.455   5.504  -9.768  1.00  0.00    -0.480 OA
ATOM     40  H   UNL     1      29.427   5.413  -9.498  1.00  0.00     0.296 HD
ENDBRANCH  37  39
ENDBRANCH  36  37
BRANCH  36  41
ATOM     41  CB  ASN A   6      26.432   6.954 -12.327  1.00  0.00     0.136 C 
BRANCH  41  42
ATOM     42  CG  ASN A   6      25.020   7.187 -12.785  1.00  0.00     0.220 C 
ATOM     43  ND2 ASN A   6      24.765   8.104 -13.838  1.00  0.00    -0.370 N 
ATOM     44  OD1 ASN A   6      24.064   6.550 -12.277  1.00  0.00    -0.275 OA
ATOM     45  H   UNL     1      25.544   8.625 -14.298  1.00  0.00     0.159 HD
ATOM     46  H   UNL     1      23.788   8.265 -14.169  1.00  0.00     0.159 HD
ENDBRANCH  41  42
ENDBRANCH  36  41
ENDBRANCH  33  36
ENDBRANCH  31  32
BRANCH  31  47
ATOM     47  CB  ARG A   5      25.863   9.603  -6.791  1.00  0.00     0.037 C 
BRANCH  47  48
ATOM     48  CG  ARG A   5      25.167  10.859  -6.268  1.00  0.00     0.024 C 
BRANCH  48  49
ATOM     49  CD  ARG A   5      25.840  11.391  -5.012  1.00  0.00     0.116 C 
BRANCH  49  50
ATOM     50  NE  ARG A   5      25.378  10.686  -3.819  1.00  0.00    -0.357 N 
ATOM     51  CZ  ARG A   5      25.469  11.282  -2.526  1.00  0.00     0.185 C 
ATOM     52  NH2 ARG A   5      26.107  12.546  -2.351  1.00  0.00    -0.370 N 
ATOM     53  H   UNL     1      24.895   9.763  -3.911  1.00  0.00     0.163 HD
ATOM     54  H   UNL     1      26.697  12.982  -3.092  1.00  0.00     0.159 HD
ATOM     55  H   UNL     1      26.079  13.024  -1.422  1.00  0.00     0.159 HD
BRANCH  51  56
ATOM     56  NH1 ARG A   5      24.954  10.672  -1.506  1.00  0.00    -0.270 NA
ATOM     57  H   UNL     1      24.995  11.076  -0.544  1.00  0.00     0.191 HD
ENDBRANCH  51  56
ENDBRANCH  49  50
ENDBRANCH  48  49
ENDBRANCH  47  48
ENDBRANCH  31  47
ENDBRANCH  28  31
ENDBRANCH  26  27
BRANCH  26  58
ATOM     58  CB  TYR A   4      20.715   8.053  -9.382  1.00  0.00     0.070 C 
BRANCH  58  59
ATOM     59  CG  TYR A   4      21.251   6.656  -9.633  1.00  0.00    -0.045 A 
ATOM     60  CD1 TYR A   4      22.614   6.360  -9.785  1.00  0.00     0.007 A 
ATOM     61  CD2 TYR A   4      20.329   5.589  -9.634  1.00  0.00     0.007 A 
ATOM     62  CE1 TYR A   4      23.046   5.031  -9.880  1.00  0.00     0.046 A 
ATOM     63  CE2 TYR A   4      20.761   4.266  -9.758  1.00  0.00     0.046 A 
ATOM     64  CZ  TYR A   4      22.124   3.984  -9.873  1.00  0.00     0.115 A 
BRANCH  64  65
ATOM     65  OH  TYR A   4      22.572   2.669  -9.980  1.00  0.00    -0.508 OA
ATOM     66  H   UNL     1      21.927   1.888  -9.978  1.00  0.00     0.293 HD
ENDBRANCH  64  65
ENDBRANCH  58  59
ENDBRANCH  26  58
ENDBRANCH   3  26
TORSDOF 27
