REMARK SMILES CC(C)C[C@H](NC(=O)[C@H](Cc1ccccc1)NC(=O)[C@@H](N)CO)C(=O)N[C@@H](Cc1c[nH]cn1)C(=O)N[C@@H](CCCNC(=N)N)C(=O)N[C@@H](CCCCN)C(=O)O
REMARK SMILES IDX 34 1 35 2 36 3 27 5 26 6 24 7 25 8 5 10 6 11 7 12 8 13 9 15
REMARK SMILES IDX 17 16 18 17 19 18 20 20 21 21 22 24 23 25 10 27 11 28 12 29
REMARK SMILES IDX 16 30 13 31 15 32 14 33 4 34 2 35 1 36 3 37 28 38 29 39
REMARK SMILES IDX 33 40 30 41 32 42 31 43 37 45 45 46 47 47 46 48 48 50 54 51
REMARK SMILES IDX 55 52 56 53 49 55 50 56 51 57 52 58 53 59 38 62 39 63 40 64
REMARK SMILES IDX 41 65 42 66 44 67 43 71
REMARK H PARENT 36 4 26 9 6 14 17 19 21 22 21 23 23 26 31 44 47 49 56 54 53 60
REMARK H PARENT 53 61 41 68 44 69 44 70 43 72
ROOT
ATOM      1  C   HIS A   4      22.714   9.209  -8.526  1.00  0.00     0.243 C 
ATOM      2  O   HIS A   4      22.885  10.037  -9.463  1.00  0.00    -0.273 OA
ATOM      3  N   ARG A   5      23.818   8.708  -7.787  1.00  0.00    -0.343 N 
ATOM      4  H   UNL     1      23.659   7.981  -7.052  1.00  0.00     0.164 HD
ENDROOT
BRANCH   1   5
ATOM      5  CA  HIS A   4      21.345   8.746  -8.170  1.00  0.00     0.177 C 
BRANCH   5   6
ATOM      6  N   HIS A   4      20.562   9.909  -7.792  1.00  0.00    -0.342 N 
ATOM      7  C   LEU A   3      20.055  10.080  -6.480  1.00  0.00     0.243 C 
ATOM      8  O   LEU A   3      20.170   9.157  -5.627  1.00  0.00    -0.273 OA
ATOM      9  H   UNL     1      20.399  10.652  -8.510  1.00  0.00     0.164 HD
BRANCH   7  10
ATOM     10  CA  LEU A   3      19.342  11.351  -6.148  1.00  0.00     0.171 C 
BRANCH  10  11
ATOM     11  N   LEU A   3      18.084  11.018  -5.539  1.00  0.00    -0.343 N 
ATOM     12  C   PHE A   2      16.887  11.745  -5.776  1.00  0.00     0.243 C 
ATOM     13  O   PHE A   2      16.906  12.796  -6.474  1.00  0.00    -0.273 OA
ATOM     14  H   UNL     1      18.156  10.383  -4.721  1.00  0.00     0.164 HD
BRANCH  12  15
ATOM     15  CA  PHE A   2      15.652  11.313  -5.056  1.00  0.00     0.175 C 
BRANCH  15  16
ATOM     16  N   PHE A   2      14.456  11.740  -5.768  1.00  0.00    -0.343 N 
ATOM     17  C   SER A   1      13.916  13.050  -5.637  1.00  0.00     0.239 C 
ATOM     18  O   SER A   1      14.444  13.870  -4.836  1.00  0.00    -0.273 OA
ATOM     19  H   UNL     1      13.870  11.000  -6.213  1.00  0.00     0.164 HD
BRANCH  17  20
ATOM     20  CA  SER A   1      12.662  13.410  -6.389  1.00  0.00     0.167 C 
BRANCH  20  21
ATOM     21  N   SER A   1      12.472  14.862  -6.376  1.00  0.00    -0.318 NA
ATOM     22  H   UNL     1      11.539  15.086  -6.793  1.00  0.00     0.119 HD
ATOM     23  H   UNL     1      13.202  15.317  -6.972  1.00  0.00     0.119 HD
ENDBRANCH  20  21
BRANCH  20  24
ATOM     24  CB  SER A   1      12.687  12.878  -7.844  1.00  0.00     0.184 C 
BRANCH  24  25
ATOM     25  OG  SER A   1      11.437  13.048  -8.451  1.00  0.00    -0.394 OA
ATOM     26  H   UNL     1      10.831  12.368  -8.054  1.00  0.00     0.210 HD
ENDBRANCH  24  25
ENDBRANCH  20  24
ENDBRANCH  17  20
ENDBRANCH  15  16
BRANCH  15  27
ATOM     27  CB  PHE A   2      15.610   9.774  -4.880  1.00  0.00     0.070 C 
BRANCH  27  28
ATOM     28  CG  PHE A   2      14.435   9.292  -4.092  1.00  0.00    -0.045 A 
ATOM     29  CD1 PHE A   2      13.898  10.048  -3.033  1.00  0.00     0.004 A 
ATOM     30  CD2 PHE A   2      13.964   7.991  -4.310  1.00  0.00     0.004 A 
ATOM     31  CE1 PHE A   2      12.866   9.535  -2.258  1.00  0.00     0.000 A 
ATOM     32  CE2 PHE A   2      12.937   7.477  -3.520  1.00  0.00     0.000 A 
ATOM     33  CZ  PHE A   2      12.384   8.252  -2.500  1.00  0.00     0.000 A 
ENDBRANCH  27  28
ENDBRANCH  15  27
ENDBRANCH  12  15
ENDBRANCH  10  11
BRANCH  10  34
ATOM     34  CB  LEU A   3      20.165  12.251  -5.217  1.00  0.00     0.038 C 
BRANCH  34  35
ATOM     35  CG  LEU A   3      20.417  11.678  -3.792  1.00  0.00    -0.015 C 
ATOM     36  CD1 LEU A   3      21.819  12.066  -3.317  1.00  0.00     0.007 C 
ATOM     37  CD2 LEU A   3      19.369  12.169  -2.782  1.00  0.00     0.007 C 
ENDBRANCH  34  35
ENDBRANCH  10  34
ENDBRANCH   7  10
ENDBRANCH   5   6
BRANCH   5  38
ATOM     38  CB  HIS A   4      20.677   8.023  -9.340  1.00  0.00     0.093 C 
BRANCH  38  39
ATOM     39  CG  HIS A   4      21.391   6.746  -9.682  1.00  0.00     0.061 A 
ATOM     40  ND1 HIS A   4      22.529   6.666 -10.400  1.00  0.00    -0.242 NA
ATOM     41  CD2 HIS A   4      21.063   5.505  -9.184  1.00  0.00     0.107 A 
ATOM     42  CE1 HIS A   4      22.856   5.356 -10.336  1.00  0.00     0.196 A 
ATOM     43  NE2 HIS A   4      21.986   4.633  -9.607  1.00  0.00    -0.351 N 
ATOM     44  H   UNL     1      22.033   3.611  -9.399  1.00  0.00     0.167 HD
ENDBRANCH  38  39
ENDBRANCH   5  38
ENDBRANCH   1   5
BRANCH   3  45
ATOM     45  CA  ARG A   5      25.182   9.115  -8.067  1.00  0.00     0.171 C 
BRANCH  45  46
ATOM     46  C   ARG A   5      25.900   7.965  -8.684  1.00  0.00     0.243 C 
ATOM     47  N   LYS A   6      25.924   7.878 -10.101  1.00  0.00    -0.341 N 
ATOM     48  O   ARG A   5      26.444   7.078  -7.972  1.00  0.00    -0.273 OA
ATOM     49  H   UNL     1      25.603   8.719 -10.632  1.00  0.00     0.164 HD
BRANCH  47  50
ATOM     50  CA  LYS A   6      26.537   6.769 -10.821  1.00  0.00     0.192 C 
BRANCH  50  51
ATOM     51  C   LYS A   6      27.986   6.641 -10.427  1.00  0.00     0.326 C 
ATOM     52  O   LYS A   6      28.797   7.574 -10.676  1.00  0.00    -0.250 OA
BRANCH  51  53
ATOM     53  OXT LYS A   6      28.430   5.488  -9.787  1.00  0.00    -0.480 OA
ATOM     54  H   UNL     1      29.400   5.387  -9.515  1.00  0.00     0.296 HD
ENDBRANCH  51  53
ENDBRANCH  50  51
BRANCH  50  55
ATOM     55  CB  LYS A   6      26.432   7.008 -12.338  1.00  0.00     0.037 C 
BRANCH  55  56
ATOM     56  CG  LYS A   6      24.977   7.135 -12.827  1.00  0.00     0.004 C 
BRANCH  56  57
ATOM     57  CD  LYS A   6      24.887   7.350 -14.346  1.00  0.00     0.015 C 
BRANCH  57  58
ATOM     58  CE  LYS A   6      25.269   8.776 -14.764  1.00  0.00     0.077 C 
BRANCH  58  59
ATOM     59  NZ  LYS A   6      25.057   8.951 -16.198  1.00  0.00    -0.330 NA
ATOM     60  H   UNL     1      25.407   9.902 -16.457  1.00  0.00     0.118 HD
ATOM     61  H   UNL     1      24.027   8.956 -16.379  1.00  0.00     0.118 HD
ENDBRANCH  58  59
ENDBRANCH  57  58
ENDBRANCH  56  57
ENDBRANCH  55  56
ENDBRANCH  50  55
ENDBRANCH  47  50
ENDBRANCH  45  46
BRANCH  45  62
ATOM     62  CB  ARG A   5      25.857   9.597  -6.789  1.00  0.00     0.037 C 
BRANCH  62  63
ATOM     63  CG  ARG A   5      25.164  10.857  -6.269  1.00  0.00     0.024 C 
BRANCH  63  64
ATOM     64  CD  ARG A   5      25.839  11.390  -5.013  1.00  0.00     0.116 C 
BRANCH  64  65
ATOM     65  NE  ARG A   5      25.378  10.686  -3.819  1.00  0.00    -0.357 N 
ATOM     66  CZ  ARG A   5      25.469  11.281  -2.526  1.00  0.00     0.185 C 
ATOM     67  NH2 ARG A   5      26.107  12.546  -2.352  1.00  0.00    -0.370 N 
ATOM     68  H   UNL     1      24.894   9.763  -3.911  1.00  0.00     0.163 HD
ATOM     69  H   UNL     1      26.696  12.982  -3.093  1.00  0.00     0.159 HD
ATOM     70  H   UNL     1      26.080  13.024  -1.423  1.00  0.00     0.159 HD
BRANCH  66  71
ATOM     71  NH1 ARG A   5      24.954  10.672  -1.506  1.00  0.00    -0.270 NA
ATOM     72  H   UNL     1      24.995  11.077  -0.544  1.00  0.00     0.191 HD
ENDBRANCH  66  71
ENDBRANCH  64  65
ENDBRANCH  63  64
ENDBRANCH  62  63
ENDBRANCH  45  62
ENDBRANCH   3  45
TORSDOF 31
