REMARK SMILES CC(C)C[C@H](NC(=O)[C@H](Cc1ccccc1)NC(=O)[C@H](CCCNC(=N)N)NC(=O)[C@@H](N)CO)C(=O)N[C@@H](CCCNC(=N)N)C(=O)N[C@@H](CC(N)=O)C(=O)O
REMARK SMILES IDX 7 1 8 2 6 3 9 5 17 6 18 7 19 8 20 10 28 11 29 12 30 13 31 15
REMARK SMILES IDX 32 16 33 19 34 20 21 22 22 23 23 24 24 25 25 26 27 27 26 31
REMARK SMILES IDX 10 33 11 34 12 35 16 36 13 37 15 38 14 39 5 40 35 41 37 42
REMARK SMILES IDX 36 43 38 45 46 46 48 47 47 48 49 50 54 51 55 52 56 53 50 55
REMARK SMILES IDX 51 56 52 57 53 58 39 61 40 62 41 63 42 64 43 65 45 66 44 70
REMARK SMILES IDX 4 72 2 73 1 74 3 75
REMARK H PARENT 6 4 17 9 28 14 32 17 32 18 34 21 24 28 27 29 27 30 26 32 37 44
REMARK H PARENT 48 49 56 54 52 59 52 60 42 67 45 68 45 69 44 71
ROOT
ATOM      1  C   PHE A   3      20.040  10.089  -6.462  1.00  0.00     0.243 C 
ATOM      2  O   PHE A   3      20.151   9.169  -5.604  1.00  0.00    -0.273 OA
ATOM      3  N   LEU A   4      20.563   9.924  -7.771  1.00  0.00    -0.343 N 
ATOM      4  H   UNL     1      20.400  10.666  -8.490  1.00  0.00     0.164 HD
ENDROOT
BRANCH   1   5
ATOM      5  CA  PHE A   3      19.339  11.362  -6.125  1.00  0.00     0.175 C 
BRANCH   5   6
ATOM      6  N   PHE A   3      18.083  11.040  -5.489  1.00  0.00    -0.342 N 
ATOM      7  C   ARG A   2      16.878  11.745  -5.741  1.00  0.00     0.243 C 
ATOM      8  O   ARG A   2      16.891  12.786  -6.456  1.00  0.00    -0.273 OA
ATOM      9  H   UNL     1      18.158  10.468  -4.622  1.00  0.00     0.164 HD
BRANCH   7  10
ATOM     10  CA  ARG A   2      15.627  11.284  -5.044  1.00  0.00     0.171 C 
BRANCH  10  11
ATOM     11  N   ARG A   2      14.450  11.734  -5.770  1.00  0.00    -0.343 N 
ATOM     12  C   SER A   1      13.917  13.045  -5.634  1.00  0.00     0.239 C 
ATOM     13  O   SER A   1      14.450  13.860  -4.830  1.00  0.00    -0.273 OA
ATOM     14  H   UNL     1      13.893  11.014  -6.277  1.00  0.00     0.164 HD
BRANCH  12  15
ATOM     15  CA  SER A   1      12.662  13.411  -6.388  1.00  0.00     0.167 C 
BRANCH  15  16
ATOM     16  N   SER A   1      12.455  14.861  -6.395  1.00  0.00    -0.318 NA
ATOM     17  H   UNL     1      12.286  15.187  -5.415  1.00  0.00     0.119 HD
ATOM     18  H   UNL     1      13.317  15.338  -6.748  1.00  0.00     0.119 HD
ENDBRANCH  15  16
BRANCH  15  19
ATOM     19  CB  SER A   1      12.688  12.894  -7.846  1.00  0.00     0.184 C 
BRANCH  19  20
ATOM     20  OG  SER A   1      11.434  13.059  -8.446  1.00  0.00    -0.394 OA
ATOM     21  H   UNL     1      10.838  12.364  -8.061  1.00  0.00     0.210 HD
ENDBRANCH  19  20
ENDBRANCH  15  19
ENDBRANCH  12  15
ENDBRANCH  10  11
BRANCH  10  22
ATOM     22  CB  ARG A   2      15.581   9.739  -4.928  1.00  0.00     0.037 C 
BRANCH  22  23
ATOM     23  CG  ARG A   2      14.409   9.266  -4.067  1.00  0.00     0.024 C 
BRANCH  23  24
ATOM     24  CD  ARG A   2      14.376   7.736  -3.964  1.00  0.00     0.116 C 
BRANCH  24  25
ATOM     25  NE  ARG A   2      13.233   7.302  -3.161  1.00  0.00    -0.357 N 
ATOM     26  CZ  ARG A   2      13.200   7.396  -1.729  1.00  0.00     0.185 C 
ATOM     27  NH2 ARG A   2      12.031   6.977  -1.021  1.00  0.00    -0.370 N 
ATOM     28  H   UNL     1      12.425   6.858  -3.652  1.00  0.00     0.163 HD
ATOM     29  H   UNL     1      11.203   6.610  -1.539  1.00  0.00     0.159 HD
ATOM     30  H   UNL     1      11.986   7.032   0.021  1.00  0.00     0.159 HD
BRANCH  26  31
ATOM     31  NH1 ARG A   2      14.225   7.850  -1.078  1.00  0.00    -0.270 NA
ATOM     32  H   UNL     1      14.225   7.925  -0.036  1.00  0.00     0.191 HD
ENDBRANCH  26  31
ENDBRANCH  24  25
ENDBRANCH  23  24
ENDBRANCH  22  23
ENDBRANCH  10  22
ENDBRANCH   7  10
ENDBRANCH   5   6
BRANCH   5  33
ATOM     33  CB  PHE A   3      20.188  12.255  -5.205  1.00  0.00     0.070 C 
BRANCH  33  34
ATOM     34  CG  PHE A   3      20.389  11.687  -3.815  1.00  0.00    -0.045 A 
ATOM     35  CD1 PHE A   3      21.441  10.794  -3.548  1.00  0.00     0.004 A 
ATOM     36  CD2 PHE A   3      19.489  12.014  -2.785  1.00  0.00     0.004 A 
ATOM     37  CE1 PHE A   3      21.554  10.198  -2.289  1.00  0.00     0.000 A 
ATOM     38  CE2 PHE A   3      19.625  11.438  -1.519  1.00  0.00     0.000 A 
ATOM     39  CZ  PHE A   3      20.652  10.524  -1.274  1.00  0.00     0.000 A 
ENDBRANCH  33  34
ENDBRANCH   5  33
ENDBRANCH   1   5
BRANCH   3  40
ATOM     40  CA  LEU A   4      21.347   8.762  -8.138  1.00  0.00     0.171 C 
BRANCH  40  41
ATOM     41  C   LEU A   4      22.712   9.217  -8.520  1.00  0.00     0.243 C 
ATOM     42  N   ARG A   5      23.822   8.720  -7.785  1.00  0.00    -0.343 N 
ATOM     43  O   LEU A   4      22.877  10.033  -9.468  1.00  0.00    -0.273 OA
ATOM     44  H   UNL     1      23.666   8.031  -7.014  1.00  0.00     0.164 HD
BRANCH  42  45
ATOM     45  CA  ARG A   5      25.185   9.122  -8.073  1.00  0.00     0.171 C 
BRANCH  45  46
ATOM     46  C   ARG A   5      25.899   7.968  -8.685  1.00  0.00     0.243 C 
ATOM     47  N   ASN A   6      25.913   7.864 -10.102  1.00  0.00    -0.341 N 
ATOM     48  O   ARG A   5      26.447   7.087  -7.969  1.00  0.00    -0.273 OA
ATOM     49  H   UNL     1      25.489   8.647 -10.651  1.00  0.00     0.164 HD
BRANCH  47  50
ATOM     50  CA  ASN A   6      26.542   6.751 -10.804  1.00  0.00     0.201 C 
BRANCH  50  51
ATOM     51  C   ASN A   6      27.993   6.642 -10.416  1.00  0.00     0.326 C 
ATOM     52  O   ASN A   6      28.794   7.579 -10.677  1.00  0.00    -0.250 OA
BRANCH  51  53
ATOM     53  OXT ASN A   6      28.451   5.499  -9.768  1.00  0.00    -0.480 OA
ATOM     54  H   UNL     1      29.424   5.409  -9.500  1.00  0.00     0.296 HD
ENDBRANCH  51  53
ENDBRANCH  50  51
BRANCH  50  55
ATOM     55  CB  ASN A   6      26.424   6.947 -12.323  1.00  0.00     0.136 C 
BRANCH  55  56
ATOM     56  CG  ASN A   6      25.010   7.180 -12.773  1.00  0.00     0.220 C 
ATOM     57  ND2 ASN A   6      24.753   8.090 -13.833  1.00  0.00    -0.370 N 
ATOM     58  OD1 ASN A   6      24.053   6.558 -12.243  1.00  0.00    -0.275 OA
ATOM     59  H   UNL     1      25.533   8.600 -14.306  1.00  0.00     0.159 HD
ATOM     60  H   UNL     1      23.775   8.258 -14.156  1.00  0.00     0.159 HD
ENDBRANCH  55  56
ENDBRANCH  50  55
ENDBRANCH  47  50
ENDBRANCH  45  46
BRANCH  45  61
ATOM     61  CB  ARG A   5      25.863   9.605  -6.795  1.00  0.00     0.037 C 
BRANCH  61  62
ATOM     62  CG  ARG A   5      25.165  10.859  -6.271  1.00  0.00     0.024 C 
BRANCH  62  63
ATOM     63  CD  ARG A   5      25.839  11.391  -5.014  1.00  0.00     0.116 C 
BRANCH  63  64
ATOM     64  NE  ARG A   5      25.379  10.685  -3.821  1.00  0.00    -0.357 N 
ATOM     65  CZ  ARG A   5      25.471  11.282  -2.526  1.00  0.00     0.185 C 
ATOM     66  NH2 ARG A   5      26.097  12.550  -2.353  1.00  0.00    -0.370 N 
ATOM     67  H   UNL     1      24.903   9.758  -3.917  1.00  0.00     0.163 HD
ATOM     68  H   UNL     1      26.675  12.998  -3.097  1.00  0.00     0.159 HD
ATOM     69  H   UNL     1      26.077  13.014  -1.418  1.00  0.00     0.159 HD
BRANCH  65  70
ATOM     70  NH1 ARG A   5      24.987  10.672  -1.492  1.00  0.00    -0.270 NA
ATOM     71  H   UNL     1      24.542   9.732  -1.565  1.00  0.00     0.191 HD
ENDBRANCH  65  70
ENDBRANCH  63  64
ENDBRANCH  62  63
ENDBRANCH  61  62
ENDBRANCH  45  61
ENDBRANCH  42  45
ENDBRANCH  40  41
BRANCH  40  72
ATOM     72  CB  LEU A   4      20.654   8.000  -9.271  1.00  0.00     0.038 C 
BRANCH  72  73
ATOM     73  CG  LEU A   4      21.448   6.772  -9.768  1.00  0.00    -0.015 C 
ATOM     74  CD1 LEU A   4      21.762   5.779  -8.639  1.00  0.00     0.007 C 
ATOM     75  CD2 LEU A   4      20.661   6.068 -10.877  1.00  0.00     0.007 C 
ENDBRANCH  72  73
ENDBRANCH  40  72
ENDBRANCH   3  40
TORSDOF 31
