REMARK SMILES CC(C)C[C@H](NC(=O)[C@H](CCCCN)NC(=O)[C@H](Cc1ccccc1)NC(=O)[C@@H](N)CO)C(=O)N[C@@H](CCCNC(=N)N)C(=O)N[C@@H](CCCNC(=N)N)C(=O)O
REMARK SMILES IDX 33 1 34 2 35 3 5 5 6 6 7 7 8 8 9 10 15 11 16 12 17 13 18 15
REMARK SMILES IDX 26 16 27 17 28 18 29 20 30 21 31 24 32 25 19 27 20 28 21 29
REMARK SMILES IDX 25 30 22 31 24 32 23 33 10 34 11 35 12 36 13 37 14 38 4 41
REMARK SMILES IDX 2 42 1 43 3 44 36 45 44 46 46 47 45 48 47 50 55 51 56 52
REMARK SMILES IDX 57 53 48 55 49 56 50 57 51 58 52 59 54 60 53 64 37 66 38 67
REMARK SMILES IDX 39 68 40 69 41 70 43 71 42 75
REMARK H PARENT 35 4 6 9 15 14 26 19 30 22 30 23 32 26 14 39 14 40 46 49 57 54
REMARK H PARENT 51 61 54 62 54 63 53 65 40 72 43 73 43 74 42 76
ROOT
ATOM      1  C   LEU A   4      22.713   9.214  -8.520  1.00  0.00     0.243 C 
ATOM      2  O   LEU A   4      22.879  10.035  -9.462  1.00  0.00    -0.273 OA
ATOM      3  N   ARG A   5      23.820   8.718  -7.782  1.00  0.00    -0.343 N 
ATOM      4  H   UNL     1      23.663   8.027  -7.012  1.00  0.00     0.164 HD
ENDROOT
BRANCH   1   5
ATOM      5  CA  LEU A   4      21.348   8.757  -8.145  1.00  0.00     0.171 C 
BRANCH   5   6
ATOM      6  N   LEU A   4      20.563   9.918  -7.780  1.00  0.00    -0.343 N 
ATOM      7  C   LYS A   3      20.034  10.079  -6.475  1.00  0.00     0.243 C 
ATOM      8  O   LYS A   3      20.148   9.159  -5.618  1.00  0.00    -0.273 OA
ATOM      9  H   UNL     1      20.405  10.661  -8.499  1.00  0.00     0.164 HD
BRANCH   7  10
ATOM     10  CA  LYS A   3      19.338  11.354  -6.143  1.00  0.00     0.171 C 
BRANCH  10  11
ATOM     11  N   LYS A   3      18.088  11.050  -5.497  1.00  0.00    -0.343 N 
ATOM     12  C   PHE A   2      16.886  11.750  -5.772  1.00  0.00     0.243 C 
ATOM     13  O   PHE A   2      16.902  12.792  -6.483  1.00  0.00    -0.273 OA
ATOM     14  H   UNL     1      18.165  10.511  -4.609  1.00  0.00     0.164 HD
BRANCH  12  15
ATOM     15  CA  PHE A   2      15.651  11.313  -5.058  1.00  0.00     0.175 C 
BRANCH  15  16
ATOM     16  N   PHE A   2      14.455  11.740  -5.768  1.00  0.00    -0.343 N 
ATOM     17  C   SER A   1      13.918  13.050  -5.633  1.00  0.00     0.239 C 
ATOM     18  O   SER A   1      14.449  13.867  -4.832  1.00  0.00    -0.273 OA
ATOM     19  H   UNL     1      13.865  11.002  -6.210  1.00  0.00     0.164 HD
BRANCH  17  20
ATOM     20  CA  SER A   1      12.661  13.411  -6.386  1.00  0.00     0.167 C 
BRANCH  20  21
ATOM     21  N   SER A   1      12.454  14.861  -6.399  1.00  0.00    -0.318 NA
ATOM     22  H   UNL     1      13.315  15.337  -6.756  1.00  0.00     0.119 HD
ATOM     23  H   UNL     1      12.285  15.191  -5.420  1.00  0.00     0.119 HD
ENDBRANCH  20  21
BRANCH  20  24
ATOM     24  CB  SER A   1      12.689  12.887  -7.840  1.00  0.00     0.184 C 
BRANCH  24  25
ATOM     25  OG  SER A   1      11.438  13.053  -8.445  1.00  0.00    -0.394 OA
ATOM     26  H   UNL     1      10.839  12.361  -8.060  1.00  0.00     0.210 HD
ENDBRANCH  24  25
ENDBRANCH  20  24
ENDBRANCH  17  20
ENDBRANCH  15  16
BRANCH  15  27
ATOM     27  CB  PHE A   2      15.613   9.773  -4.891  1.00  0.00     0.070 C 
BRANCH  27  28
ATOM     28  CG  PHE A   2      14.444   9.289  -4.090  1.00  0.00    -0.045 A 
ATOM     29  CD1 PHE A   2      13.903  10.046  -3.033  1.00  0.00     0.004 A 
ATOM     30  CD2 PHE A   2      13.968   7.989  -4.310  1.00  0.00     0.004 A 
ATOM     31  CE1 PHE A   2      12.869   9.535  -2.260  1.00  0.00     0.000 A 
ATOM     32  CE2 PHE A   2      12.939   7.477  -3.521  1.00  0.00     0.000 A 
ATOM     33  CZ  PHE A   2      12.386   8.252  -2.502  1.00  0.00     0.000 A 
ENDBRANCH  27  28
ENDBRANCH  15  27
ENDBRANCH  12  15
ENDBRANCH  10  11
BRANCH  10  34
ATOM     34  CB  LYS A   3      20.202  12.240  -5.244  1.00  0.00     0.035 C 
BRANCH  34  35
ATOM     35  CG  LYS A   3      20.415  11.695  -3.815  1.00  0.00     0.004 C 
BRANCH  35  36
ATOM     36  CD  LYS A   3      21.776  12.136  -3.272  1.00  0.00     0.015 C 
BRANCH  36  37
ATOM     37  CE  LYS A   3      21.929  11.852  -1.772  1.00  0.00     0.077 C 
BRANCH  37  38
ATOM     38  NZ  LYS A   3      20.938  12.588  -0.987  1.00  0.00    -0.330 NA
ATOM     39  H   UNL     1      21.297  12.664  -0.007  1.00  0.00     0.118 HD
ATOM     40  H   UNL     1      20.069  12.009  -0.926  1.00  0.00     0.118 HD
ENDBRANCH  37  38
ENDBRANCH  36  37
ENDBRANCH  35  36
ENDBRANCH  34  35
ENDBRANCH  10  34
ENDBRANCH   7  10
ENDBRANCH   5   6
BRANCH   5  41
ATOM     41  CB  LEU A   4      20.659   8.000  -9.281  1.00  0.00     0.038 C 
BRANCH  41  42
ATOM     42  CG  LEU A   4      21.451   6.769  -9.774  1.00  0.00    -0.015 C 
ATOM     43  CD1 LEU A   4      21.761   5.778  -8.642  1.00  0.00     0.007 C 
ATOM     44  CD2 LEU A   4      20.663   6.067 -10.882  1.00  0.00     0.007 C 
ENDBRANCH  41  42
ENDBRANCH   5  41
ENDBRANCH   1   5
BRANCH   3  45
ATOM     45  CA  ARG A   5      25.183   9.120  -8.066  1.00  0.00     0.171 C 
BRANCH  45  46
ATOM     46  C   ARG A   5      25.900   7.968  -8.678  1.00  0.00     0.243 C 
ATOM     47  N   ARG A   6      25.977   7.912 -10.092  1.00  0.00    -0.341 N 
ATOM     48  O   ARG A   5      26.425   7.070  -7.967  1.00  0.00    -0.273 OA
ATOM     49  H   UNL     1      25.930   8.832 -10.586  1.00  0.00     0.164 HD
BRANCH  47  50
ATOM     50  CA  ARG A   6      26.538   6.783 -10.812  1.00  0.00     0.192 C 
BRANCH  50  51
ATOM     51  C   ARG A   6      27.989   6.634 -10.442  1.00  0.00     0.326 C 
ATOM     52  O   ARG A   6      28.802   7.568 -10.679  1.00  0.00    -0.250 OA
BRANCH  51  53
ATOM     53  OXT ARG A   6      28.435   5.461  -9.843  1.00  0.00    -0.480 OA
ATOM     54  H   UNL     1      29.409   5.345  -9.588  1.00  0.00     0.296 HD
ENDBRANCH  51  53
ENDBRANCH  50  51
BRANCH  50  55
ATOM     55  CB  ARG A   6      26.403   7.023 -12.327  1.00  0.00     0.039 C 
BRANCH  55  56
ATOM     56  CG  ARG A   6      24.943   7.069 -12.824  1.00  0.00     0.024 C 
BRANCH  56  57
ATOM     57  CD  ARG A   6      24.189   8.387 -12.592  1.00  0.00     0.116 C 
BRANCH  57  58
ATOM     58  NE  ARG A   6      22.908   8.382 -13.303  1.00  0.00    -0.357 N 
ATOM     59  CZ  ARG A   6      21.929   9.427 -13.165  1.00  0.00     0.185 C 
ATOM     60  NH2 ARG A   6      20.620   9.236 -13.701  1.00  0.00    -0.370 N 
ATOM     61  H   UNL     1      22.641   7.544 -13.868  1.00  0.00     0.163 HD
ATOM     62  H   UNL     1      20.366   8.344 -14.179  1.00  0.00     0.159 HD
ATOM     63  H   UNL     1      19.895   9.983 -13.611  1.00  0.00     0.159 HD
BRANCH  59  64
ATOM     64  NH1 ARG A   6      22.210  10.545 -12.570  1.00  0.00    -0.270 NA
ATOM     65  H   UNL     1      23.145  10.760 -12.162  1.00  0.00     0.191 HD
ENDBRANCH  59  64
ENDBRANCH  57  58
ENDBRANCH  56  57
ENDBRANCH  55  56
ENDBRANCH  50  55
ENDBRANCH  47  50
ENDBRANCH  45  46
BRANCH  45  66
ATOM     66  CB  ARG A   5      25.860   9.604  -6.791  1.00  0.00     0.037 C 
BRANCH  66  67
ATOM     67  CG  ARG A   5      25.165  10.861  -6.270  1.00  0.00     0.024 C 
BRANCH  67  68
ATOM     68  CD  ARG A   5      25.838  11.394  -5.014  1.00  0.00     0.116 C 
BRANCH  68  69
ATOM     69  NE  ARG A   5      25.379  10.684  -3.824  1.00  0.00    -0.357 N 
ATOM     70  CZ  ARG A   5      25.478  11.272  -2.526  1.00  0.00     0.185 C 
ATOM     71  NH2 ARG A   5      26.103  12.541  -2.349  1.00  0.00    -0.370 N 
ATOM     72  H   UNL     1      24.900   9.760  -3.923  1.00  0.00     0.163 HD
ATOM     73  H   UNL     1      26.676  12.995  -3.093  1.00  0.00     0.159 HD
ATOM     74  H   UNL     1      26.082  13.002  -1.412  1.00  0.00     0.159 HD
BRANCH  70  75
ATOM     75  NH1 ARG A   5      24.990  10.659  -1.496  1.00  0.00    -0.270 NA
ATOM     76  H   UNL     1      24.519   9.730  -1.580  1.00  0.00     0.191 HD
ENDBRANCH  70  75
ENDBRANCH  68  69
ENDBRANCH  67  68
ENDBRANCH  66  67
ENDBRANCH  45  66
ENDBRANCH   3  45
TORSDOF 34
