REMARK SMILES CC(C)C[C@H](NC(=O)[C@H](Cc1ccccc1)NC(=O)[C@@H](N)CO)C(=O)N[C@@H](Cc1c[nH]cn1)C(=O)N[C@@H](CCCNC(=N)N)C(=O)N[C@@H](CO)C(=O)O
REMARK SMILES IDX 24 1 25 2 26 3 5 5 6 6 7 7 8 8 9 10 17 11 18 12 19 13 20 15
REMARK SMILES IDX 21 16 22 19 23 20 10 22 11 23 12 24 16 25 13 26 15 27 14 28
REMARK SMILES IDX 4 29 2 30 1 31 3 32 27 33 34 34 36 35 35 36 37 38 45 39
REMARK SMILES IDX 47 40 46 41 48 43 51 44 52 45 53 46 49 48 50 49 38 51 39 52
REMARK SMILES IDX 40 53 41 54 42 55 44 56 43 60 28 62 29 63 33 64 30 65 32 66
REMARK SMILES IDX 31 67
REMARK H PARENT 26 4 6 9 17 14 21 17 21 18 23 21 36 37 47 42 53 47 50 50 41 57
REMARK H PARENT 44 58 44 59 43 61 31 68
ROOT
ATOM      1  C   LEU A   3      20.069  10.081  -6.445  1.00  0.00     0.243 C 
ATOM      2  O   LEU A   3      20.205   9.182  -5.571  1.00  0.00    -0.273 OA
ATOM      3  N   HIS A   4      20.563   9.896  -7.765  1.00  0.00    -0.342 N 
ATOM      4  H   UNL     1      20.391  10.632  -8.488  1.00  0.00     0.164 HD
ENDROOT
BRANCH   1   5
ATOM      5  CA  LEU A   3      19.339  11.338  -6.137  1.00  0.00     0.171 C 
BRANCH   5   6
ATOM      6  N   LEU A   3      18.090  11.025  -5.506  1.00  0.00    -0.343 N 
ATOM      7  C   PHE A   2      16.891  11.742  -5.765  1.00  0.00     0.243 C 
ATOM      8  O   PHE A   2      16.909  12.787  -6.472  1.00  0.00    -0.273 OA
ATOM      9  H   UNL     1      18.161  10.397  -4.684  1.00  0.00     0.164 HD
BRANCH   7  10
ATOM     10  CA  PHE A   2      15.653  11.310  -5.054  1.00  0.00     0.175 C 
BRANCH  10  11
ATOM     11  N   PHE A   2      14.458  11.739  -5.768  1.00  0.00    -0.343 N 
ATOM     12  C   SER A   1      13.920  13.049  -5.633  1.00  0.00     0.239 C 
ATOM     13  O   SER A   1      14.450  13.866  -4.832  1.00  0.00    -0.273 OA
ATOM     14  H   UNL     1      13.873  11.001  -6.216  1.00  0.00     0.164 HD
BRANCH  12  15
ATOM     15  CA  SER A   1      12.663  13.410  -6.386  1.00  0.00     0.167 C 
BRANCH  15  16
ATOM     16  N   SER A   1      12.455  14.860  -6.398  1.00  0.00    -0.318 NA
ATOM     17  H   UNL     1      13.316  15.336  -6.755  1.00  0.00     0.119 HD
ATOM     18  H   UNL     1      12.286  15.189  -5.419  1.00  0.00     0.119 HD
ENDBRANCH  15  16
BRANCH  15  19
ATOM     19  CB  SER A   1      12.690  12.886  -7.840  1.00  0.00     0.184 C 
BRANCH  19  20
ATOM     20  OG  SER A   1      11.438  13.054  -8.445  1.00  0.00    -0.394 OA
ATOM     21  H   UNL     1      10.839  12.362  -8.060  1.00  0.00     0.210 HD
ENDBRANCH  19  20
ENDBRANCH  15  19
ENDBRANCH  12  15
ENDBRANCH  10  11
BRANCH  10  22
ATOM     22  CB  PHE A   2      15.609   9.771  -4.882  1.00  0.00     0.070 C 
BRANCH  22  23
ATOM     23  CG  PHE A   2      14.436   9.290  -4.091  1.00  0.00    -0.045 A 
ATOM     24  CD1 PHE A   2      13.898  10.047  -3.032  1.00  0.00     0.004 A 
ATOM     25  CD2 PHE A   2      13.964   7.990  -4.310  1.00  0.00     0.004 A 
ATOM     26  CE1 PHE A   2      12.866   9.535  -2.258  1.00  0.00     0.000 A 
ATOM     27  CE2 PHE A   2      12.937   7.476  -3.520  1.00  0.00     0.000 A 
ATOM     28  CZ  PHE A   2      12.384   8.251  -2.500  1.00  0.00     0.000 A 
ENDBRANCH  22  23
ENDBRANCH  10  22
ENDBRANCH   7  10
ENDBRANCH   5   6
BRANCH   5  29
ATOM     29  CB  LEU A   3      20.158  12.341  -5.314  1.00  0.00     0.038 C 
BRANCH  29  30
ATOM     30  CG  LEU A   3      20.434  12.203  -3.790  1.00  0.00    -0.015 C 
ATOM     31  CD1 LEU A   3      21.823  11.746  -3.387  1.00  0.00     0.007 C 
ATOM     32  CD2 LEU A   3      19.302  11.894  -2.821  1.00  0.00     0.007 C 
ENDBRANCH  29  30
ENDBRANCH   5  29
ENDBRANCH   1   5
BRANCH   3  33
ATOM     33  CA  HIS A   4      21.345   8.737  -8.148  1.00  0.00     0.177 C 
BRANCH  33  34
ATOM     34  C   HIS A   4      22.710   9.203  -8.523  1.00  0.00     0.243 C 
ATOM     35  N   ARG A   5      23.820   8.707  -7.791  1.00  0.00    -0.343 N 
ATOM     36  O   HIS A   4      22.872  10.031  -9.462  1.00  0.00    -0.273 OA
ATOM     37  H   UNL     1      23.668   7.980  -7.054  1.00  0.00     0.164 HD
BRANCH  35  38
ATOM     38  CA  ARG A   5      25.183   9.115  -8.078  1.00  0.00     0.171 C 
BRANCH  38  39
ATOM     39  C   ARG A   5      25.899   7.963  -8.693  1.00  0.00     0.243 C 
ATOM     40  N   SER A   6      25.887   7.840 -10.111  1.00  0.00    -0.339 N 
ATOM     41  O   ARG A   5      26.457   7.090  -7.975  1.00  0.00    -0.273 OA
ATOM     42  H   UNL     1      25.372   8.565 -10.663  1.00  0.00     0.164 HD
BRANCH  40  43
ATOM     43  CA  SER A   6      26.545   6.744 -10.814  1.00  0.00     0.218 C 
BRANCH  43  44
ATOM     44  C   SER A   6      27.995   6.652 -10.415  1.00  0.00     0.328 C 
ATOM     45  O   SER A   6      28.792   7.590 -10.686  1.00  0.00    -0.250 OA
BRANCH  44  46
ATOM     46  OXT SER A   6      28.457   5.523  -9.747  1.00  0.00    -0.480 OA
ATOM     47  H   UNL     1      29.428   5.444  -9.470  1.00  0.00     0.296 HD
ENDBRANCH  44  46
ENDBRANCH  43  44
BRANCH  43  48
ATOM     48  CB  SER A   6      26.414   6.953 -12.327  1.00  0.00     0.193 C 
BRANCH  48  49
ATOM     49  OG  SER A   6      26.979   5.869 -13.011  1.00  0.00    -0.394 OA
ATOM     50  H   UNL     1      26.866   6.065 -13.978  1.00  0.00     0.210 HD
ENDBRANCH  48  49
ENDBRANCH  43  48
ENDBRANCH  40  43
ENDBRANCH  38  39
BRANCH  38  51
ATOM     51  CB  ARG A   5      25.859   9.601  -6.799  1.00  0.00     0.037 C 
BRANCH  51  52
ATOM     52  CG  ARG A   5      25.163  10.857  -6.274  1.00  0.00     0.024 C 
BRANCH  52  53
ATOM     53  CD  ARG A   5      25.838  11.389  -5.017  1.00  0.00     0.116 C 
BRANCH  53  54
ATOM     54  NE  ARG A   5      25.375  10.684  -3.824  1.00  0.00    -0.357 N 
ATOM     55  CZ  ARG A   5      25.467  11.279  -2.528  1.00  0.00     0.185 C 
ATOM     56  NH2 ARG A   5      26.106  12.541  -2.351  1.00  0.00    -0.370 N 
ATOM     57  H   UNL     1      24.894   9.761  -3.922  1.00  0.00     0.163 HD
ATOM     58  H   UNL     1      26.690  12.983  -3.093  1.00  0.00     0.159 HD
ATOM     59  H   UNL     1      26.083  13.006  -1.417  1.00  0.00     0.159 HD
BRANCH  55  60
ATOM     60  NH1 ARG A   5      24.956  10.679  -1.500  1.00  0.00    -0.270 NA
ATOM     61  H   UNL     1      24.473   9.757  -1.584  1.00  0.00     0.191 HD
ENDBRANCH  55  60
ENDBRANCH  53  54
ENDBRANCH  52  53
ENDBRANCH  51  52
ENDBRANCH  38  51
ENDBRANCH  35  38
ENDBRANCH  33  34
BRANCH  33  62
ATOM     62  CB  HIS A   4      20.658   7.998  -9.300  1.00  0.00     0.093 C 
BRANCH  62  63
ATOM     63  CG  HIS A   4      21.447   6.799  -9.744  1.00  0.00     0.061 A 
ATOM     64  ND1 HIS A   4      22.309   6.808 -10.780  1.00  0.00    -0.242 NA
ATOM     65  CD2 HIS A   4      21.497   5.582  -9.103  1.00  0.00     0.107 A 
ATOM     66  CE1 HIS A   4      22.855   5.574 -10.757  1.00  0.00     0.196 A 
ATOM     67  NE2 HIS A   4      22.383   4.812  -9.752  1.00  0.00    -0.351 N 
ATOM     68  H   UNL     1      22.659   3.833  -9.519  1.00  0.00     0.167 HD
ENDBRANCH  62  63
ENDBRANCH  33  62
ENDBRANCH   3  33
TORSDOF 28
