REMARK SMILES CC(C)C[C@H](NC(=O)[C@H](CCCCN)NC(=O)[C@H](Cc1ccccc1)NC(=O)[C@@H](N)CO)C(=O)N[C@@H](CCCNC(=N)N)C(=O)N[C@@H](CO)C(=O)O
REMARK SMILES IDX 7 1 8 2 6 3 9 5 15 6 16 7 17 8 18 10 26 11 27 12 28 13 29 15
REMARK SMILES IDX 30 16 31 19 32 20 19 22 20 23 21 24 25 25 22 26 24 27 23 28
REMARK SMILES IDX 10 29 11 30 12 31 13 32 14 33 5 36 33 37 35 38 34 39 36 41
REMARK SMILES IDX 44 42 46 43 45 44 47 46 50 47 51 48 52 49 48 51 49 52 37 54
REMARK SMILES IDX 38 55 39 56 40 57 41 58 43 59 42 63 4 65 2 66 1 67 3 68
REMARK H PARENT 6 4 15 9 26 14 30 17 30 18 32 21 14 34 14 35 35 40 46 45 52 50
REMARK H PARENT 49 53 40 60 43 61 43 62 42 64
ROOT
ATOM      1  C   LYS A   3      20.036  10.081  -6.473  1.00  0.00     0.243 C 
ATOM      2  O   LYS A   3      20.150   9.162  -5.616  1.00  0.00    -0.273 OA
ATOM      3  N   LEU A   4      20.565   9.920  -7.778  1.00  0.00    -0.343 N 
ATOM      4  H   UNL     1      20.405  10.662  -8.498  1.00  0.00     0.164 HD
ENDROOT
BRANCH   1   5
ATOM      5  CA  LYS A   3      19.337  11.356  -6.143  1.00  0.00     0.171 C 
BRANCH   5   6
ATOM      6  N   LYS A   3      18.088  11.050  -5.498  1.00  0.00    -0.343 N 
ATOM      7  C   PHE A   2      16.886  11.750  -5.772  1.00  0.00     0.243 C 
ATOM      8  O   PHE A   2      16.901  12.792  -6.483  1.00  0.00    -0.273 OA
ATOM      9  H   UNL     1      18.163  10.510  -4.611  1.00  0.00     0.164 HD
BRANCH   7  10
ATOM     10  CA  PHE A   2      15.651  11.313  -5.059  1.00  0.00     0.175 C 
BRANCH  10  11
ATOM     11  N   PHE A   2      14.455  11.740  -5.769  1.00  0.00    -0.343 N 
ATOM     12  C   SER A   1      13.916  13.049  -5.633  1.00  0.00     0.239 C 
ATOM     13  O   SER A   1      14.448  13.866  -4.832  1.00  0.00    -0.273 OA
ATOM     14  H   UNL     1      13.869  11.001  -6.216  1.00  0.00     0.164 HD
BRANCH  12  15
ATOM     15  CA  SER A   1      12.661  13.413  -6.387  1.00  0.00     0.167 C 
BRANCH  15  16
ATOM     16  N   SER A   1      12.457  14.863  -6.398  1.00  0.00    -0.318 NA
ATOM     17  H   UNL     1      12.292  15.193  -5.419  1.00  0.00     0.119 HD
ATOM     18  H   UNL     1      13.318  15.337  -6.758  1.00  0.00     0.119 HD
ENDBRANCH  15  16
BRANCH  15  19
ATOM     19  CB  SER A   1      12.690  12.889  -7.841  1.00  0.00     0.184 C 
BRANCH  19  20
ATOM     20  OG  SER A   1      11.436  13.050  -8.444  1.00  0.00    -0.394 OA
ATOM     21  H   UNL     1      11.385  13.993  -8.750  1.00  0.00     0.210 HD
ENDBRANCH  19  20
ENDBRANCH  15  19
ENDBRANCH  12  15
ENDBRANCH  10  11
BRANCH  10  22
ATOM     22  CB  PHE A   2      15.613   9.773  -4.891  1.00  0.00     0.070 C 
BRANCH  22  23
ATOM     23  CG  PHE A   2      14.444   9.289  -4.090  1.00  0.00    -0.045 A 
ATOM     24  CD1 PHE A   2      13.903  10.046  -3.033  1.00  0.00     0.004 A 
ATOM     25  CD2 PHE A   2      13.968   7.989  -4.310  1.00  0.00     0.004 A 
ATOM     26  CE1 PHE A   2      12.869   9.535  -2.260  1.00  0.00     0.000 A 
ATOM     27  CE2 PHE A   2      12.939   7.477  -3.521  1.00  0.00     0.000 A 
ATOM     28  CZ  PHE A   2      12.386   8.252  -2.502  1.00  0.00     0.000 A 
ENDBRANCH  22  23
ENDBRANCH  10  22
ENDBRANCH   7  10
ENDBRANCH   5   6
BRANCH   5  29
ATOM     29  CB  LYS A   3      20.198  12.247  -5.244  1.00  0.00     0.035 C 
BRANCH  29  30
ATOM     30  CG  LYS A   3      20.406  11.707  -3.813  1.00  0.00     0.004 C 
BRANCH  30  31
ATOM     31  CD  LYS A   3      21.787  12.097  -3.281  1.00  0.00     0.015 C 
BRANCH  31  32
ATOM     32  CE  LYS A   3      21.874  11.894  -1.763  1.00  0.00     0.077 C 
BRANCH  32  33
ATOM     33  NZ  LYS A   3      21.668  10.493  -1.405  1.00  0.00    -0.330 NA
ATOM     34  H   UNL     1      21.780  10.408  -0.369  1.00  0.00     0.118 HD
ATOM     35  H   UNL     1      22.429   9.922  -1.839  1.00  0.00     0.118 HD
ENDBRANCH  32  33
ENDBRANCH  31  32
ENDBRANCH  30  31
ENDBRANCH  29  30
ENDBRANCH   5  29
ENDBRANCH   1   5
BRANCH   3  36
ATOM     36  CA  LEU A   4      21.350   8.759  -8.143  1.00  0.00     0.171 C 
BRANCH  36  37
ATOM     37  C   LEU A   4      22.714   9.216  -8.523  1.00  0.00     0.243 C 
ATOM     38  N   ARG A   5      23.823   8.720  -7.788  1.00  0.00    -0.343 N 
ATOM     39  O   LEU A   4      22.878  10.034  -9.469  1.00  0.00    -0.273 OA
ATOM     40  H   UNL     1      23.668   8.031  -7.017  1.00  0.00     0.164 HD
BRANCH  38  41
ATOM     41  CA  ARG A   5      25.187   9.120  -8.078  1.00  0.00     0.171 C 
BRANCH  41  42
ATOM     42  C   ARG A   5      25.898   7.964  -8.692  1.00  0.00     0.243 C 
ATOM     43  N   SER A   6      25.880   7.839 -10.109  1.00  0.00    -0.339 N 
ATOM     44  O   ARG A   5      26.458   7.091  -7.975  1.00  0.00    -0.273 OA
ATOM     45  H   UNL     1      25.339   8.547 -10.657  1.00  0.00     0.164 HD
BRANCH  43  46
ATOM     46  CA  SER A   6      26.546   6.750 -10.817  1.00  0.00     0.218 C 
BRANCH  46  47
ATOM     47  C   SER A   6      27.995   6.652 -10.416  1.00  0.00     0.328 C 
ATOM     48  O   SER A   6      28.796   7.588 -10.678  1.00  0.00    -0.250 OA
BRANCH  47  49
ATOM     49  OXT SER A   6      28.453   5.516  -9.755  1.00  0.00    -0.480 OA
ATOM     50  H   UNL     1      29.423   5.433  -9.477  1.00  0.00     0.296 HD
ENDBRANCH  47  49
ENDBRANCH  46  47
BRANCH  46  51
ATOM     51  CB  SER A   6      26.411   6.949 -12.332  1.00  0.00     0.193 C 
BRANCH  51  52
ATOM     52  OG  SER A   6      26.953   8.181 -12.726  1.00  0.00    -0.394 OA
ATOM     53  H   UNL     1      26.826   8.235 -13.709  1.00  0.00     0.210 HD
ENDBRANCH  51  52
ENDBRANCH  46  51
ENDBRANCH  43  46
ENDBRANCH  41  42
BRANCH  41  54
ATOM     54  CB  ARG A   5      25.864   9.605  -6.799  1.00  0.00     0.037 C 
BRANCH  54  55
ATOM     55  CG  ARG A   5      25.164  10.857  -6.271  1.00  0.00     0.024 C 
BRANCH  55  56
ATOM     56  CD  ARG A   5      25.838  11.391  -5.015  1.00  0.00     0.116 C 
BRANCH  56  57
ATOM     57  NE  ARG A   5      25.378  10.687  -3.821  1.00  0.00    -0.357 N 
ATOM     58  CZ  ARG A   5      25.479  11.278  -2.526  1.00  0.00     0.185 C 
ATOM     59  NH2 ARG A   5      26.106  12.549  -2.353  1.00  0.00    -0.370 N 
ATOM     60  H   UNL     1      24.896   9.763  -3.911  1.00  0.00     0.163 HD
ATOM     61  H   UNL     1      26.083  13.023  -1.423  1.00  0.00     0.159 HD
ATOM     62  H   UNL     1      26.682  12.995  -3.100  1.00  0.00     0.159 HD
BRANCH  58  63
ATOM     63  NH1 ARG A   5      24.990  10.657  -1.502  1.00  0.00    -0.270 NA
ATOM     64  H   UNL     1      25.042  11.056  -0.538  1.00  0.00     0.191 HD
ENDBRANCH  58  63
ENDBRANCH  56  57
ENDBRANCH  55  56
ENDBRANCH  54  55
ENDBRANCH  41  54
ENDBRANCH  38  41
ENDBRANCH  36  37
BRANCH  36  65
ATOM     65  CB  LEU A   4      20.657   7.998  -9.276  1.00  0.00     0.038 C 
BRANCH  65  66
ATOM     66  CG  LEU A   4      21.450   6.769  -9.772  1.00  0.00    -0.015 C 
ATOM     67  CD1 LEU A   4      21.763   5.778  -8.640  1.00  0.00     0.007 C 
ATOM     68  CD2 LEU A   4      20.659   6.064 -10.877  1.00  0.00     0.007 C 
ENDBRANCH  65  66
ENDBRANCH  36  65
ENDBRANCH   3  36
TORSDOF 31
