REMARK SMILES N=C(N)NCCC[C@H](NC(=O)CNC(=O)[C@H](CCC(=O)O)NC(=O)[C@H](Cc1ccccc1)NC(=O)[C@@H](N)CO)C(=O)N[C@@H](CC(N)=O)C(=O)O
REMARK SMILES IDX 14 1 15 2 13 3 16 5 22 6 23 7 24 8 25 10 33 11 34 12 35 13
REMARK SMILES IDX 36 15 37 16 38 19 39 20 26 22 27 23 28 24 32 25 29 26 31 27
REMARK SMILES IDX 30 28 17 29 18 30 19 31 20 32 21 33 12 35 10 36 9 37 11 38
REMARK SMILES IDX 8 40 40 41 42 42 41 43 43 45 48 46 49 47 50 48 44 50 45 51
REMARK SMILES IDX 46 52 47 53 7 56 6 57 5 58 4 59 2 60 3 61 1 65
REMARK H PARENT 13 4 22 9 33 14 37 17 37 18 39 21 21 34 9 39 42 44 50 49 46 54
REMARK H PARENT 46 55 4 62 3 63 3 64 1 66
ROOT
ATOM      1  C   GLU A   3      20.044  10.073  -6.480  1.00  0.00     0.243 C 
ATOM      2  O   GLU A   3      20.169   9.153  -5.626  1.00  0.00    -0.273 OA
ATOM      3  N   GLY A   4      20.556   9.911  -7.793  1.00  0.00    -0.345 N 
ATOM      4  H   UNL     1      20.395  10.660  -8.504  1.00  0.00     0.164 HD
ENDROOT
BRANCH   1   5
ATOM      5  CA  GLU A   3      19.341  11.350  -6.144  1.00  0.00     0.172 C 
BRANCH   5   6
ATOM      6  N   GLU A   3      18.090  11.045  -5.500  1.00  0.00    -0.342 N 
ATOM      7  C   PHE A   2      16.888  11.749  -5.772  1.00  0.00     0.243 C 
ATOM      8  O   PHE A   2      16.905  12.791  -6.483  1.00  0.00    -0.273 OA
ATOM      9  H   UNL     1      18.165  10.503  -4.614  1.00  0.00     0.164 HD
BRANCH   7  10
ATOM     10  CA  PHE A   2      15.652  11.314  -5.059  1.00  0.00     0.175 C 
BRANCH  10  11
ATOM     11  N   PHE A   2      14.455  11.741  -5.769  1.00  0.00    -0.343 N 
ATOM     12  C   SER A   1      13.916  13.051  -5.637  1.00  0.00     0.239 C 
ATOM     13  O   SER A   1      14.444  13.870  -4.836  1.00  0.00    -0.273 OA
ATOM     14  H   UNL     1      13.867  11.002  -6.211  1.00  0.00     0.164 HD
BRANCH  12  15
ATOM     15  CA  SER A   1      12.662  13.411  -6.389  1.00  0.00     0.167 C 
BRANCH  15  16
ATOM     16  N   SER A   1      12.471  14.862  -6.376  1.00  0.00    -0.318 NA
ATOM     17  H   UNL     1      11.539  15.087  -6.793  1.00  0.00     0.119 HD
ATOM     18  H   UNL     1      13.202  15.317  -6.972  1.00  0.00     0.119 HD
ENDBRANCH  15  16
BRANCH  15  19
ATOM     19  CB  SER A   1      12.687  12.879  -7.844  1.00  0.00     0.184 C 
BRANCH  19  20
ATOM     20  OG  SER A   1      11.436  13.048  -8.451  1.00  0.00    -0.394 OA
ATOM     21  H   UNL     1      10.831  12.368  -8.054  1.00  0.00     0.210 HD
ENDBRANCH  19  20
ENDBRANCH  15  19
ENDBRANCH  12  15
ENDBRANCH  10  11
BRANCH  10  22
ATOM     22  CB  PHE A   2      15.613   9.774  -4.890  1.00  0.00     0.070 C 
BRANCH  22  23
ATOM     23  CG  PHE A   2      14.443   9.290  -4.090  1.00  0.00    -0.045 A 
ATOM     24  CD1 PHE A   2      13.903  10.047  -3.033  1.00  0.00     0.004 A 
ATOM     25  CD2 PHE A   2      13.968   7.990  -4.310  1.00  0.00     0.004 A 
ATOM     26  CE1 PHE A   2      12.869   9.536  -2.260  1.00  0.00     0.000 A 
ATOM     27  CE2 PHE A   2      12.939   7.477  -3.521  1.00  0.00     0.000 A 
ATOM     28  CZ  PHE A   2      12.386   8.252  -2.502  1.00  0.00     0.000 A 
ENDBRANCH  22  23
ENDBRANCH  10  22
ENDBRANCH   7  10
ENDBRANCH   5   6
BRANCH   5  29
ATOM     29  CB  GLU A   3      20.198  12.247  -5.244  1.00  0.00     0.047 C 
BRANCH  29  30
ATOM     30  CG  GLU A   3      20.419  11.708  -3.813  1.00  0.00     0.125 C 
BRANCH  30  31
ATOM     31  CD  GLU A   3      21.776  12.072  -3.302  1.00  0.00     0.303 C 
ATOM     32  OE1 GLU A   3      22.386  11.271  -2.548  1.00  0.00    -0.252 OA
BRANCH  31  33
ATOM     33  OE2 GLU A   3      22.331  13.318  -3.582  1.00  0.00    -0.481 OA
ATOM     34  H   UNL     1      23.241  13.575  -3.218  1.00  0.00     0.296 HD
ENDBRANCH  31  33
ENDBRANCH  30  31
ENDBRANCH  29  30
ENDBRANCH   5  29
ENDBRANCH   1   5
BRANCH   3  35
ATOM     35  CA  GLY A   4      21.332   8.756  -8.197  1.00  0.00     0.216 C 
BRANCH  35  36
ATOM     36  C   GLY A   4      22.705   9.205  -8.537  1.00  0.00     0.240 C 
ATOM     37  N   ARG A   5      23.806   8.709  -7.788  1.00  0.00    -0.343 N 
ATOM     38  O   GLY A   4      22.882  10.030  -9.473  1.00  0.00    -0.273 OA
ATOM     39  H   UNL     1      23.641   7.992  -7.044  1.00  0.00     0.164 HD
BRANCH  37  40
ATOM     40  CA  ARG A   5      25.174   9.114  -8.068  1.00  0.00     0.171 C 
BRANCH  40  41
ATOM     41  C   ARG A   5      25.896   7.965  -8.684  1.00  0.00     0.243 C 
ATOM     42  N   ASN A   6      25.915   7.866 -10.101  1.00  0.00    -0.341 N 
ATOM     43  O   ARG A   5      26.447   7.086  -7.969  1.00  0.00    -0.273 OA
ATOM     44  H   UNL     1      25.496   8.652 -10.649  1.00  0.00     0.164 HD
BRANCH  42  45
ATOM     45  CA  ASN A   6      26.543   6.752 -10.803  1.00  0.00     0.201 C 
BRANCH  45  46
ATOM     46  C   ASN A   6      27.993   6.642 -10.416  1.00  0.00     0.326 C 
ATOM     47  O   ASN A   6      28.795   7.579 -10.677  1.00  0.00    -0.250 OA
BRANCH  46  48
ATOM     48  OXT ASN A   6      28.452   5.499  -9.769  1.00  0.00    -0.480 OA
ATOM     49  H   UNL     1      29.425   5.409  -9.501  1.00  0.00     0.296 HD
ENDBRANCH  46  48
ENDBRANCH  45  46
BRANCH  45  50
ATOM     50  CB  ASN A   6      26.424   6.947 -12.323  1.00  0.00     0.136 C 
BRANCH  50  51
ATOM     51  CG  ASN A   6      25.010   7.182 -12.772  1.00  0.00     0.220 C 
ATOM     52  ND2 ASN A   6      24.754   8.089 -13.834  1.00  0.00    -0.370 N 
ATOM     53  OD1 ASN A   6      24.051   6.563 -12.238  1.00  0.00    -0.275 OA
ATOM     54  H   UNL     1      23.775   8.257 -14.157  1.00  0.00     0.159 HD
ATOM     55  H   UNL     1      25.534   8.596 -14.309  1.00  0.00     0.159 HD
ENDBRANCH  50  51
ENDBRANCH  45  50
ENDBRANCH  42  45
ENDBRANCH  40  41
BRANCH  40  56
ATOM     56  CB  ARG A   5      25.851   9.598  -6.790  1.00  0.00     0.037 C 
BRANCH  56  57
ATOM     57  CG  ARG A   5      25.161  10.858  -6.270  1.00  0.00     0.024 C 
BRANCH  57  58
ATOM     58  CD  ARG A   5      25.837  11.392  -5.015  1.00  0.00     0.116 C 
BRANCH  58  59
ATOM     59  NE  ARG A   5      25.379  10.685  -3.821  1.00  0.00    -0.357 N 
ATOM     60  CZ  ARG A   5      25.480  11.277  -2.525  1.00  0.00     0.185 C 
ATOM     61  NH2 ARG A   5      26.105  12.545  -2.351  1.00  0.00    -0.370 N 
ATOM     62  H   UNL     1      24.901   9.760  -3.918  1.00  0.00     0.163 HD
ATOM     63  H   UNL     1      26.085  13.010  -1.416  1.00  0.00     0.159 HD
ATOM     64  H   UNL     1      26.679  12.996  -3.097  1.00  0.00     0.159 HD
BRANCH  60  65
ATOM     65  NH1 ARG A   5      24.988  10.669  -1.492  1.00  0.00    -0.270 NA
ATOM     66  H   UNL     1      24.520   9.739  -1.571  1.00  0.00     0.191 HD
ENDBRANCH  60  65
ENDBRANCH  58  59
ENDBRANCH  57  58
ENDBRANCH  56  57
ENDBRANCH  40  56
ENDBRANCH  37  40
ENDBRANCH  35  36
ENDBRANCH   3  35
TORSDOF 28
