REMARK SMILES CC(C)C[C@H](NC(=O)[C@H](Cc1c[nH]cn1)NC(=O)[C@H](Cc1ccccc1)NC(=O)[C@@H](N)CO)C(=O)N[C@@H](CCCNC(=N)N)C(=O)N[C@@H](C)C(=O)O
REMARK SMILES IDX 7 1 8 2 6 3 9 5 16 6 17 7 18 8 19 10 27 11 28 12 29 13 30 15
REMARK SMILES IDX 31 16 32 19 33 20 20 22 21 23 22 24 26 25 23 26 25 27 24 28
REMARK SMILES IDX 10 29 11 30 15 31 12 32 14 33 13 34 5 36 34 37 36 38 35 39
REMARK SMILES IDX 37 41 45 42 47 43 46 44 48 46 49 47 50 48 51 49 52 50 38 52
REMARK SMILES IDX 39 53 40 54 41 55 42 56 44 57 43 61 4 63 2 64 1 65 3 66
REMARK H PARENT 6 4 16 9 27 14 31 17 31 18 33 21 13 35 36 40 47 45 52 51 41 58
REMARK H PARENT 44 59 44 60 43 62
ROOT
ATOM      1  C   HIS A   3      20.051  10.096  -6.459  1.00  0.00     0.243 C 
ATOM      2  O   HIS A   3      20.169   9.182  -5.595  1.00  0.00    -0.273 OA
ATOM      3  N   LEU A   4      20.563   9.921  -7.771  1.00  0.00    -0.342 N 
ATOM      4  H   UNL     1      20.395  10.659  -8.493  1.00  0.00     0.164 HD
ENDROOT
BRANCH   1   5
ATOM      5  CA  HIS A   3      19.346  11.368  -6.131  1.00  0.00     0.177 C 
BRANCH   5   6
ATOM      6  N   HIS A   3      18.089  11.044  -5.508  1.00  0.00    -0.342 N 
ATOM      7  C   PHE A   2      16.887  11.749  -5.774  1.00  0.00     0.243 C 
ATOM      8  O   PHE A   2      16.903  12.793  -6.483  1.00  0.00    -0.273 OA
ATOM      9  H   UNL     1      18.164  10.485  -4.633  1.00  0.00     0.164 HD
BRANCH   7  10
ATOM     10  CA  PHE A   2      15.651  11.313  -5.060  1.00  0.00     0.175 C 
BRANCH  10  11
ATOM     11  N   PHE A   2      14.453  11.740  -5.770  1.00  0.00    -0.343 N 
ATOM     12  C   SER A   1      13.914  13.050  -5.636  1.00  0.00     0.239 C 
ATOM     13  O   SER A   1      14.449  13.868  -4.838  1.00  0.00    -0.273 OA
ATOM     14  H   UNL     1      13.865  11.000  -6.212  1.00  0.00     0.164 HD
BRANCH  12  15
ATOM     15  CA  SER A   1      12.654  13.411  -6.385  1.00  0.00     0.167 C 
BRANCH  15  16
ATOM     16  N   SER A   1      12.468  14.864  -6.382  1.00  0.00    -0.318 NA
ATOM     17  H   UNL     1      12.337  15.180  -5.393  1.00  0.00     0.119 HD
ATOM     18  H   UNL     1      11.564  15.088  -6.857  1.00  0.00     0.119 HD
ENDBRANCH  15  16
BRANCH  15  19
ATOM     19  CB  SER A   1      12.696  12.894  -7.842  1.00  0.00     0.184 C 
BRANCH  19  20
ATOM     20  OG  SER A   1      11.439  13.036  -8.447  1.00  0.00    -0.394 OA
ATOM     21  H   UNL     1      11.454  13.890  -8.953  1.00  0.00     0.210 HD
ENDBRANCH  19  20
ENDBRANCH  15  19
ENDBRANCH  12  15
ENDBRANCH  10  11
BRANCH  10  22
ATOM     22  CB  PHE A   2      15.612   9.774  -4.890  1.00  0.00     0.070 C 
BRANCH  22  23
ATOM     23  CG  PHE A   2      14.442   9.290  -4.090  1.00  0.00    -0.045 A 
ATOM     24  CD1 PHE A   2      13.903  10.047  -3.033  1.00  0.00     0.004 A 
ATOM     25  CD2 PHE A   2      13.968   7.990  -4.310  1.00  0.00     0.004 A 
ATOM     26  CE1 PHE A   2      12.869   9.536  -2.260  1.00  0.00     0.000 A 
ATOM     27  CE2 PHE A   2      12.939   7.477  -3.521  1.00  0.00     0.000 A 
ATOM     28  CZ  PHE A   2      12.386   8.252  -2.502  1.00  0.00     0.000 A 
ENDBRANCH  22  23
ENDBRANCH  10  22
ENDBRANCH   7  10
ENDBRANCH   5   6
BRANCH   5  29
ATOM     29  CB  HIS A   3      20.176  12.265  -5.201  1.00  0.00     0.093 C 
BRANCH  29  30
ATOM     30  CG  HIS A   3      20.426  11.673  -3.838  1.00  0.00     0.061 A 
ATOM     31  ND1 HIS A   3      19.584  11.800  -2.792  1.00  0.00    -0.242 NA
ATOM     32  CD2 HIS A   3      21.525  10.931  -3.467  1.00  0.00     0.107 A 
ATOM     33  CE1 HIS A   3      20.198  11.121  -1.799  1.00  0.00     0.196 A 
ATOM     34  NE2 HIS A   3      21.373  10.585  -2.181  1.00  0.00    -0.351 N 
ATOM     35  H   UNL     1      22.027  10.018  -1.598  1.00  0.00     0.167 HD
ENDBRANCH  29  30
ENDBRANCH   5  29
ENDBRANCH   1   5
BRANCH   3  36
ATOM     36  CA  LEU A   4      21.348   8.760  -8.138  1.00  0.00     0.171 C 
BRANCH  36  37
ATOM     37  C   LEU A   4      22.713   9.217  -8.520  1.00  0.00     0.243 C 
ATOM     38  N   ARG A   5      23.823   8.720  -7.787  1.00  0.00    -0.343 N 
ATOM     39  O   LEU A   4      22.876  10.034  -9.467  1.00  0.00    -0.273 OA
ATOM     40  H   UNL     1      23.668   8.031  -7.016  1.00  0.00     0.164 HD
BRANCH  38  41
ATOM     41  CA  ARG A   5      25.186   9.120  -8.078  1.00  0.00     0.171 C 
BRANCH  41  42
ATOM     42  C   ARG A   5      25.897   7.963  -8.692  1.00  0.00     0.243 C 
ATOM     43  N   ALA A   6      25.884   7.840 -10.110  1.00  0.00    -0.341 N 
ATOM     44  O   ARG A   5      26.455   7.090  -7.974  1.00  0.00    -0.273 OA
ATOM     45  H   UNL     1      25.367   8.562 -10.663  1.00  0.00     0.164 HD
BRANCH  43  46
ATOM     46  CA  ALA A   6      26.544   6.745 -10.813  1.00  0.00     0.189 C 
ATOM     47  CB  ALA A   6      26.419   6.955 -12.323  1.00  0.00     0.043 C 
BRANCH  46  48
ATOM     48  C   ALA A   6      27.993   6.652 -10.418  1.00  0.00     0.325 C 
ATOM     49  O   ALA A   6      28.790   7.589 -10.686  1.00  0.00    -0.250 OA
BRANCH  48  50
ATOM     50  OXT ALA A   6      28.456   5.520  -9.752  1.00  0.00    -0.480 OA
ATOM     51  H   UNL     1      29.427   5.440  -9.477  1.00  0.00     0.296 HD
ENDBRANCH  48  50
ENDBRANCH  46  48
ENDBRANCH  43  46
ENDBRANCH  41  42
BRANCH  41  52
ATOM     52  CB  ARG A   5      25.864   9.604  -6.800  1.00  0.00     0.037 C 
BRANCH  52  53
ATOM     53  CG  ARG A   5      25.166  10.857  -6.272  1.00  0.00     0.024 C 
BRANCH  53  54
ATOM     54  CD  ARG A   5      25.841  11.389  -5.015  1.00  0.00     0.116 C 
BRANCH  54  55
ATOM     55  NE  ARG A   5      25.378  10.685  -3.821  1.00  0.00    -0.357 N 
ATOM     56  CZ  ARG A   5      25.468  11.281  -2.527  1.00  0.00     0.185 C 
ATOM     57  NH2 ARG A   5      26.107  12.546  -2.352  1.00  0.00    -0.370 N 
ATOM     58  H   UNL     1      24.902   9.759  -3.912  1.00  0.00     0.163 HD
ATOM     59  H   UNL     1      26.697  12.981  -3.093  1.00  0.00     0.159 HD
ATOM     60  H   UNL     1      26.080  13.023  -1.424  1.00  0.00     0.159 HD
BRANCH  56  61
ATOM     61  NH1 ARG A   5      24.955  10.671  -1.507  1.00  0.00    -0.270 NA
ATOM     62  H   UNL     1      24.996  11.075  -0.545  1.00  0.00     0.191 HD
ENDBRANCH  56  61
ENDBRANCH  54  55
ENDBRANCH  53  54
ENDBRANCH  52  53
ENDBRANCH  41  52
ENDBRANCH  38  41
ENDBRANCH  36  37
BRANCH  36  63
ATOM     63  CB  LEU A   4      20.656   7.999  -9.272  1.00  0.00     0.038 C 
BRANCH  63  64
ATOM     64  CG  LEU A   4      21.449   6.771  -9.770  1.00  0.00    -0.015 C 
ATOM     65  CD1 LEU A   4      21.763   5.779  -8.640  1.00  0.00     0.007 C 
ATOM     66  CD2 LEU A   4      20.659   6.066 -10.876  1.00  0.00     0.007 C 
ENDBRANCH  63  64
ENDBRANCH  36  63
ENDBRANCH   3  36
TORSDOF 26
