REMARK SMILES CC(C)C[C@H](NC(=O)[C@H](CCCCN)NC(=O)[C@@H](N)CO)C(=O)N[C@H](C(=O)N[C@@H](CCCNC(=N)N)C(=O)N[C@@H](CC(N)=O)C(=O)O)C(C)C
REMARK SMILES IDX 22 1 23 2 24 3 5 5 6 6 7 7 8 8 9 10 15 11 16 12 17 13 18 15
REMARK SMILES IDX 19 16 20 19 21 20 10 22 11 23 12 24 13 25 14 26 4 29 2 30
REMARK SMILES IDX 1 31 3 32 25 33 26 34 28 35 27 36 29 38 37 39 39 40 38 41
REMARK SMILES IDX 40 43 45 44 46 45 47 46 41 48 42 49 43 50 44 51 30 54 31 55
REMARK SMILES IDX 32 56 33 57 34 58 36 59 35 63 48 65 49 66 50 67
REMARK H PARENT 24 4 6 9 15 14 19 17 19 18 21 21 14 27 14 28 28 37 39 42 47 47
REMARK H PARENT 43 52 43 53 33 60 36 61 36 62 35 64
ROOT
ATOM      1  C   LEU A   3      20.045  10.081  -6.473  1.00  0.00     0.243 C 
ATOM      2  O   LEU A   3      20.159   9.151  -5.627  1.00  0.00    -0.273 OA
ATOM      3  N   VAL A   4      20.575   9.932  -7.778  1.00  0.00    -0.342 N 
ATOM      4  H   UNL     1      20.488  10.727  -8.451  1.00  0.00     0.164 HD
ENDROOT
BRANCH   1   5
ATOM      5  CA  LEU A   3      19.328  11.347  -6.136  1.00  0.00     0.171 C 
BRANCH   5   6
ATOM      6  N   LEU A   3      18.073  11.013  -5.515  1.00  0.00    -0.343 N 
ATOM      7  C   LYS A   2      16.874  11.738  -5.742  1.00  0.00     0.243 C 
ATOM      8  O   LYS A   2      16.891  12.787  -6.447  1.00  0.00    -0.273 OA
ATOM      9  H   UNL     1      18.147  10.381  -4.693  1.00  0.00     0.164 HD
BRANCH   7  10
ATOM     10  CA  LYS A   2      15.623  11.283  -5.041  1.00  0.00     0.171 C 
BRANCH  10  11
ATOM     11  N   LYS A   2      14.447  11.733  -5.771  1.00  0.00    -0.343 N 
ATOM     12  C   SER A   1      13.912  13.045  -5.637  1.00  0.00     0.239 C 
ATOM     13  O   SER A   1      14.447  13.861  -4.838  1.00  0.00    -0.273 OA
ATOM     14  H   UNL     1      13.894  11.012  -6.280  1.00  0.00     0.164 HD
BRANCH  12  15
ATOM     15  CA  SER A   1      12.655  13.409  -6.390  1.00  0.00     0.167 C 
BRANCH  15  16
ATOM     16  N   SER A   1      12.468  14.862  -6.381  1.00  0.00    -0.318 NA
ATOM     17  H   UNL     1      11.584  15.091  -6.890  1.00  0.00     0.119 HD
ATOM     18  H   UNL     1      12.302  15.168  -5.394  1.00  0.00     0.119 HD
ENDBRANCH  15  16
BRANCH  15  19
ATOM     19  CB  SER A   1      12.696  12.902  -7.851  1.00  0.00     0.184 C 
BRANCH  19  20
ATOM     20  OG  SER A   1      11.435  13.048  -8.442  1.00  0.00    -0.394 OA
ATOM     21  H   UNL     1      11.545  12.804  -9.398  1.00  0.00     0.210 HD
ENDBRANCH  19  20
ENDBRANCH  15  19
ENDBRANCH  12  15
ENDBRANCH  10  11
BRANCH  10  22
ATOM     22  CB  LYS A   2      15.572   9.737  -4.918  1.00  0.00     0.035 C 
BRANCH  22  23
ATOM     23  CG  LYS A   2      14.391   9.269  -4.068  1.00  0.00     0.004 C 
BRANCH  23  24
ATOM     24  CD  LYS A   2      14.350   7.738  -3.966  1.00  0.00     0.015 C 
BRANCH  24  25
ATOM     25  CE  LYS A   2      13.161   7.273  -3.114  1.00  0.00     0.077 C 
BRANCH  25  26
ATOM     26  NZ  LYS A   2      13.117   5.816  -3.012  1.00  0.00    -0.330 NA
ATOM     27  H   UNL     1      14.012   5.479  -2.590  1.00  0.00     0.118 HD
ATOM     28  H   UNL     1      13.047   5.412  -3.975  1.00  0.00     0.118 HD
ENDBRANCH  25  26
ENDBRANCH  24  25
ENDBRANCH  23  24
ENDBRANCH  22  23
ENDBRANCH  10  22
ENDBRANCH   7  10
ENDBRANCH   5   6
BRANCH   5  29
ATOM     29  CB  LEU A   3      20.159  12.249  -5.214  1.00  0.00     0.038 C 
BRANCH  29  30
ATOM     30  CG  LEU A   3      20.416  11.679  -3.790  1.00  0.00    -0.015 C 
ATOM     31  CD1 LEU A   3      21.820  12.066  -3.319  1.00  0.00     0.007 C 
ATOM     32  CD2 LEU A   3      19.371  12.171  -2.777  1.00  0.00     0.007 C 
ENDBRANCH  29  30
ENDBRANCH   5  29
ENDBRANCH   1   5
BRANCH   3  33
ATOM     33  CA  VAL A   4      21.342   8.764  -8.175  1.00  0.00     0.174 C 
BRANCH  33  34
ATOM     34  C   VAL A   4      22.717   9.212  -8.537  1.00  0.00     0.243 C 
ATOM     35  N   ARG A   5      23.818   8.708  -7.795  1.00  0.00    -0.343 N 
ATOM     36  O   VAL A   4      22.894  10.049  -9.463  1.00  0.00    -0.273 OA
ATOM     37  H   UNL     1      23.658   7.980  -7.061  1.00  0.00     0.164 HD
BRANCH  35  38
ATOM     38  CA  ARG A   5      25.183   9.116  -8.071  1.00  0.00     0.171 C 
BRANCH  38  39
ATOM     39  C   ARG A   5      25.902   7.966  -8.685  1.00  0.00     0.243 C 
ATOM     40  N   ASN A   6      25.914   7.864 -10.102  1.00  0.00    -0.341 N 
ATOM     41  O   ARG A   5      26.451   7.085  -7.970  1.00  0.00    -0.273 OA
ATOM     42  H   UNL     1      25.490   8.647 -10.650  1.00  0.00     0.164 HD
BRANCH  40  43
ATOM     43  CA  ASN A   6      26.543   6.751 -10.804  1.00  0.00     0.201 C 
BRANCH  43  44
ATOM     44  C   ASN A   6      27.993   6.642 -10.417  1.00  0.00     0.326 C 
ATOM     45  O   ASN A   6      28.794   7.579 -10.677  1.00  0.00    -0.250 OA
BRANCH  44  46
ATOM     46  OXT ASN A   6      28.452   5.498  -9.771  1.00  0.00    -0.480 OA
ATOM     47  H   UNL     1      29.425   5.408  -9.503  1.00  0.00     0.296 HD
ENDBRANCH  44  46
ENDBRANCH  43  44
BRANCH  43  48
ATOM     48  CB  ASN A   6      26.425   6.947 -12.324  1.00  0.00     0.136 C 
BRANCH  48  49
ATOM     49  CG  ASN A   6      25.011   7.181 -12.773  1.00  0.00     0.220 C 
ATOM     50  ND2 ASN A   6      24.754   8.091 -13.834  1.00  0.00    -0.370 N 
ATOM     51  OD1 ASN A   6      24.053   6.558 -12.243  1.00  0.00    -0.275 OA
ATOM     52  H   UNL     1      23.775   8.259 -14.156  1.00  0.00     0.159 HD
ATOM     53  H   UNL     1      25.533   8.601 -14.306  1.00  0.00     0.159 HD
ENDBRANCH  48  49
ENDBRANCH  43  48
ENDBRANCH  40  43
ENDBRANCH  38  39
BRANCH  38  54
ATOM     54  CB  ARG A   5      25.855   9.598  -6.790  1.00  0.00     0.037 C 
BRANCH  54  55
ATOM     55  CG  ARG A   5      25.162  10.857  -6.270  1.00  0.00     0.024 C 
BRANCH  55  56
ATOM     56  CD  ARG A   5      25.838  11.390  -5.014  1.00  0.00     0.116 C 
BRANCH  56  57
ATOM     57  NE  ARG A   5      25.377  10.686  -3.820  1.00  0.00    -0.357 N 
ATOM     58  CZ  ARG A   5      25.469  11.281  -2.526  1.00  0.00     0.185 C 
ATOM     59  NH2 ARG A   5      26.107  12.546  -2.352  1.00  0.00    -0.370 N 
ATOM     60  H   UNL     1      24.893   9.763  -3.911  1.00  0.00     0.163 HD
ATOM     61  H   UNL     1      26.080  13.024  -1.424  1.00  0.00     0.159 HD
ATOM     62  H   UNL     1      26.696  12.982  -3.094  1.00  0.00     0.159 HD
BRANCH  58  63
ATOM     63  NH1 ARG A   5      24.955  10.672  -1.506  1.00  0.00    -0.270 NA
ATOM     64  H   UNL     1      24.996  11.077  -0.545  1.00  0.00     0.191 HD
ENDBRANCH  58  63
ENDBRANCH  56  57
ENDBRANCH  55  56
ENDBRANCH  54  55
ENDBRANCH  38  54
ENDBRANCH  35  38
ENDBRANCH  33  34
BRANCH  33  65
ATOM     65  CB  VAL A   4      20.628   7.981  -9.301  1.00  0.00     0.015 C 
ATOM     66  CG1 VAL A   4      21.448   6.761  -9.742  1.00  0.00     0.010 C 
ATOM     67  CG2 VAL A   4      20.249   8.827 -10.531  1.00  0.00     0.010 C 
ENDBRANCH  33  65
ENDBRANCH   3  33
TORSDOF 30
