REMARK SMILES CC(C)C[C@H](NC(=O)[C@H](CCCNC(=N)N)NC(=O)[C@@H](N)CO)C(=O)NCC(=O)N[C@@H](CCCNC(=N)N)C(=O)N[C@@H](CC(N)=O)C(=O)O
REMARK SMILES IDX 24 1 25 2 26 3 5 5 6 6 7 7 8 8 9 10 17 11 18 12 19 13 20 15
REMARK SMILES IDX 21 16 22 19 23 20 10 22 11 23 12 24 13 25 14 26 16 27 15 31
REMARK SMILES IDX 4 33 2 34 1 35 3 36 27 37 28 38 30 39 29 40 31 42 39 43
REMARK SMILES IDX 41 44 40 45 42 47 47 48 48 49 49 50 43 52 44 53 45 54 46 55
REMARK SMILES IDX 32 58 33 59 34 60 35 61 36 62 38 63 37 67
REMARK H PARENT 26 4 6 9 17 14 21 17 21 18 23 21 13 28 16 29 16 30 15 32 30 41
REMARK H PARENT 41 46 49 51 45 56 45 57 35 64 38 65 38 66 37 68
ROOT
ATOM      1  C   LEU A   3      20.066  10.077  -6.446  1.00  0.00     0.243 C 
ATOM      2  O   LEU A   3      20.209   9.174  -5.578  1.00  0.00    -0.273 OA
ATOM      3  N   GLY A   4      20.563   9.907  -7.768  1.00  0.00    -0.345 N 
ATOM      4  H   UNL     1      20.394  10.652  -8.481  1.00  0.00     0.164 HD
ENDROOT
BRANCH   1   5
ATOM      5  CA  LEU A   3      19.329  11.331  -6.128  1.00  0.00     0.171 C 
BRANCH   5   6
ATOM      6  N   LEU A   3      18.082  11.016  -5.485  1.00  0.00    -0.343 N 
ATOM      7  C   ARG A   2      16.879  11.735  -5.732  1.00  0.00     0.243 C 
ATOM      8  O   ARG A   2      16.897  12.778  -6.445  1.00  0.00    -0.273 OA
ATOM      9  H   UNL     1      18.155  10.388  -4.663  1.00  0.00     0.164 HD
BRANCH   7  10
ATOM     10  CA  ARG A   2      15.623  11.280  -5.040  1.00  0.00     0.171 C 
BRANCH  10  11
ATOM     11  N   ARG A   2      14.449  11.734  -5.773  1.00  0.00    -0.343 N 
ATOM     12  C   SER A   1      13.915  13.046  -5.637  1.00  0.00     0.239 C 
ATOM     13  O   SER A   1      14.450  13.862  -4.837  1.00  0.00    -0.273 OA
ATOM     14  H   UNL     1      13.892  11.014  -6.280  1.00  0.00     0.164 HD
BRANCH  12  15
ATOM     15  CA  SER A   1      12.656  13.410  -6.386  1.00  0.00     0.167 C 
BRANCH  15  16
ATOM     16  N   SER A   1      12.469  14.863  -6.378  1.00  0.00    -0.318 NA
ATOM     17  H   UNL     1      11.582  15.090  -6.884  1.00  0.00     0.119 HD
ATOM     18  H   UNL     1      12.306  15.170  -5.391  1.00  0.00     0.119 HD
ENDBRANCH  15  16
BRANCH  15  19
ATOM     19  CB  SER A   1      12.693  12.902  -7.848  1.00  0.00     0.184 C 
BRANCH  19  20
ATOM     20  OG  SER A   1      11.436  13.043  -8.450  1.00  0.00    -0.394 OA
ATOM     21  H   UNL     1      10.855  12.334  -8.066  1.00  0.00     0.210 HD
ENDBRANCH  19  20
ENDBRANCH  15  19
ENDBRANCH  12  15
ENDBRANCH  10  11
BRANCH  10  22
ATOM     22  CB  ARG A   2      15.570   9.735  -4.923  1.00  0.00     0.037 C 
BRANCH  22  23
ATOM     23  CG  ARG A   2      14.395   9.266  -4.064  1.00  0.00     0.024 C 
BRANCH  23  24
ATOM     24  CD  ARG A   2      14.308   7.735  -3.986  1.00  0.00     0.116 C 
BRANCH  24  25
ATOM     25  NE  ARG A   2      15.488   7.164  -3.334  1.00  0.00    -0.357 N 
ATOM     26  CZ  ARG A   2      15.727   7.256  -1.922  1.00  0.00     0.185 C 
ATOM     27  NH2 ARG A   2      16.942   6.736  -1.376  1.00  0.00    -0.370 N 
ATOM     28  H   UNL     1      16.170   6.637  -3.924  1.00  0.00     0.163 HD
ATOM     29  H   UNL     1      17.136   6.788  -0.351  1.00  0.00     0.159 HD
ATOM     30  H   UNL     1      17.657   6.299  -1.999  1.00  0.00     0.159 HD
BRANCH  26  31
ATOM     31  NH1 ARG A   2      14.846   7.799  -1.142  1.00  0.00    -0.270 NA
ATOM     32  H   UNL     1      14.996   7.874  -0.111  1.00  0.00     0.191 HD
ENDBRANCH  26  31
ENDBRANCH  24  25
ENDBRANCH  23  24
ENDBRANCH  22  23
ENDBRANCH  10  22
ENDBRANCH   7  10
ENDBRANCH   5   6
BRANCH   5  33
ATOM     33  CB  LEU A   3      20.153  12.337  -5.313  1.00  0.00     0.038 C 
BRANCH  33  34
ATOM     34  CG  LEU A   3      20.433  12.204  -3.789  1.00  0.00    -0.015 C 
ATOM     35  CD1 LEU A   3      21.822  11.747  -3.388  1.00  0.00     0.007 C 
ATOM     36  CD2 LEU A   3      19.304  11.896  -2.817  1.00  0.00     0.007 C 
ENDBRANCH  33  34
ENDBRANCH   5  33
ENDBRANCH   1   5
BRANCH   3  37
ATOM     37  CA  GLY A   4      21.332   8.753  -8.183  1.00  0.00     0.216 C 
BRANCH  37  38
ATOM     38  C   GLY A   4      22.704   9.202  -8.532  1.00  0.00     0.240 C 
ATOM     39  N   ARG A   5      23.808   8.707  -7.786  1.00  0.00    -0.343 N 
ATOM     40  O   GLY A   4      22.878  10.027  -9.470  1.00  0.00    -0.273 OA
ATOM     41  H   UNL     1      23.645   7.990  -7.042  1.00  0.00     0.164 HD
BRANCH  39  42
ATOM     42  CA  ARG A   5      25.175   9.114  -8.068  1.00  0.00     0.171 C 
BRANCH  42  43
ATOM     43  C   ARG A   5      25.897   7.966  -8.684  1.00  0.00     0.243 C 
ATOM     44  N   ASN A   6      25.915   7.866 -10.101  1.00  0.00    -0.341 N 
ATOM     45  O   ARG A   5      26.448   7.086  -7.969  1.00  0.00    -0.273 OA
ATOM     46  H   UNL     1      25.496   8.652 -10.650  1.00  0.00     0.164 HD
BRANCH  44  47
ATOM     47  CA  ASN A   6      26.543   6.752 -10.803  1.00  0.00     0.201 C 
BRANCH  47  48
ATOM     48  C   ASN A   6      27.993   6.642 -10.416  1.00  0.00     0.326 C 
ATOM     49  O   ASN A   6      28.795   7.579 -10.677  1.00  0.00    -0.250 OA
BRANCH  48  50
ATOM     50  OXT ASN A   6      28.452   5.499  -9.769  1.00  0.00    -0.480 OA
ATOM     51  H   UNL     1      29.425   5.408  -9.501  1.00  0.00     0.296 HD
ENDBRANCH  48  50
ENDBRANCH  47  48
BRANCH  47  52
ATOM     52  CB  ASN A   6      26.424   6.947 -12.323  1.00  0.00     0.136 C 
BRANCH  52  53
ATOM     53  CG  ASN A   6      25.010   7.182 -12.772  1.00  0.00     0.220 C 
ATOM     54  ND2 ASN A   6      24.754   8.089 -13.834  1.00  0.00    -0.370 N 
ATOM     55  OD1 ASN A   6      24.051   6.563 -12.238  1.00  0.00    -0.275 OA
ATOM     56  H   UNL     1      23.775   8.257 -14.157  1.00  0.00     0.159 HD
ATOM     57  H   UNL     1      25.534   8.596 -14.309  1.00  0.00     0.159 HD
ENDBRANCH  52  53
ENDBRANCH  47  52
ENDBRANCH  44  47
ENDBRANCH  42  43
BRANCH  42  58
ATOM     58  CB  ARG A   5      25.852   9.598  -6.791  1.00  0.00     0.037 C 
BRANCH  58  59
ATOM     59  CG  ARG A   5      25.161  10.858  -6.269  1.00  0.00     0.024 C 
BRANCH  59  60
ATOM     60  CD  ARG A   5      25.838  11.390  -5.014  1.00  0.00     0.116 C 
BRANCH  60  61
ATOM     61  NE  ARG A   5      25.375  10.687  -3.820  1.00  0.00    -0.357 N 
ATOM     62  CZ  ARG A   5      25.468  11.282  -2.526  1.00  0.00     0.185 C 
ATOM     63  NH2 ARG A   5      26.108  12.546  -2.352  1.00  0.00    -0.370 N 
ATOM     64  H   UNL     1      24.889   9.765  -3.911  1.00  0.00     0.163 HD
ATOM     65  H   UNL     1      26.697  12.981  -3.094  1.00  0.00     0.159 HD
ATOM     66  H   UNL     1      26.082  13.023  -1.423  1.00  0.00     0.159 HD
BRANCH  62  67
ATOM     67  NH1 ARG A   5      24.954  10.672  -1.506  1.00  0.00    -0.270 NA
ATOM     68  H   UNL     1      24.996  11.077  -0.544  1.00  0.00     0.191 HD
ENDBRANCH  62  67
ENDBRANCH  60  61
ENDBRANCH  59  60
ENDBRANCH  58  59
ENDBRANCH  42  58
ENDBRANCH  39  42
ENDBRANCH  37  38
ENDBRANCH   3  37
TORSDOF 29
