REMARK SMILES CC(C)C[C@H](NC(=O)[C@H](Cc1ccccc1)NC(=O)[C@@H](N)CO)C(=O)N[C@@H](C)C(=O)N[C@@H](CCCNC(=N)N)C(=O)N[C@@H](CCCCN)C(=O)O
REMARK SMILES IDX 29 1 30 2 31 3 27 5 28 6 26 7 24 8 25 9 5 11 6 12 7 13 8 14
REMARK SMILES IDX 9 16 17 17 18 18 19 19 20 21 21 22 22 25 23 26 10 28 11 29
REMARK SMILES IDX 12 30 16 31 13 32 15 33 14 34 4 35 2 36 1 37 3 38 32 39
REMARK SMILES IDX 40 40 42 41 41 42 43 44 49 45 50 46 51 47 44 49 45 50 46 51
REMARK SMILES IDX 47 52 48 53 33 56 34 57 35 58 36 59 37 60 39 61 38 65
REMARK H PARENT 31 4 26 10 6 15 17 20 21 23 21 24 23 27 42 43 51 48 48 54
REMARK H PARENT 48 55 36 62 39 63 39 64 38 66
ROOT
ATOM      1  C   ALA A   4      22.711   9.197  -8.533  1.00  0.00     0.242 C 
ATOM      2  O   ALA A   4      22.878  10.025  -9.470  1.00  0.00    -0.273 OA
ATOM      3  N   ARG A   5      23.817   8.706  -7.789  1.00  0.00    -0.343 N 
ATOM      4  H   UNL     1      23.660   7.984  -7.048  1.00  0.00     0.164 HD
ENDROOT
BRANCH   1   5
ATOM      5  CA  ALA A   4      21.343   8.745  -8.159  1.00  0.00     0.168 C 
ATOM      6  CB  ALA A   4      20.666   8.004  -9.302  1.00  0.00     0.041 C 
BRANCH   5   7
ATOM      7  N   ALA A   4      20.564   9.911  -7.788  1.00  0.00    -0.343 N 
ATOM      8  C   LEU A   3      20.054  10.082  -6.477  1.00  0.00     0.243 C 
ATOM      9  O   LEU A   3      20.167   9.158  -5.624  1.00  0.00    -0.273 OA
ATOM     10  H   UNL     1      20.402  10.653  -8.507  1.00  0.00     0.164 HD
BRANCH   8  11
ATOM     11  CA  LEU A   3      19.341  11.352  -6.147  1.00  0.00     0.171 C 
BRANCH  11  12
ATOM     12  N   LEU A   3      18.083  11.020  -5.538  1.00  0.00    -0.343 N 
ATOM     13  C   PHE A   2      16.887  11.745  -5.776  1.00  0.00     0.243 C 
ATOM     14  O   PHE A   2      16.906  12.796  -6.474  1.00  0.00    -0.273 OA
ATOM     15  H   UNL     1      18.156  10.386  -4.719  1.00  0.00     0.164 HD
BRANCH  13  16
ATOM     16  CA  PHE A   2      15.652  11.313  -5.056  1.00  0.00     0.175 C 
BRANCH  16  17
ATOM     17  N   PHE A   2      14.455  11.740  -5.767  1.00  0.00    -0.343 N 
ATOM     18  C   SER A   1      13.916  13.050  -5.637  1.00  0.00     0.239 C 
ATOM     19  O   SER A   1      14.444  13.870  -4.836  1.00  0.00    -0.273 OA
ATOM     20  H   UNL     1      13.869  11.000  -6.212  1.00  0.00     0.164 HD
BRANCH  18  21
ATOM     21  CA  SER A   1      12.662  13.410  -6.389  1.00  0.00     0.167 C 
BRANCH  21  22
ATOM     22  N   SER A   1      12.472  14.862  -6.376  1.00  0.00    -0.318 NA
ATOM     23  H   UNL     1      11.539  15.086  -6.793  1.00  0.00     0.119 HD
ATOM     24  H   UNL     1      13.202  15.317  -6.972  1.00  0.00     0.119 HD
ENDBRANCH  21  22
BRANCH  21  25
ATOM     25  CB  SER A   1      12.687  12.878  -7.844  1.00  0.00     0.184 C 
BRANCH  25  26
ATOM     26  OG  SER A   1      11.437  13.048  -8.451  1.00  0.00    -0.394 OA
ATOM     27  H   UNL     1      10.831  12.368  -8.054  1.00  0.00     0.210 HD
ENDBRANCH  25  26
ENDBRANCH  21  25
ENDBRANCH  18  21
ENDBRANCH  16  17
BRANCH  16  28
ATOM     28  CB  PHE A   2      15.610   9.774  -4.880  1.00  0.00     0.070 C 
BRANCH  28  29
ATOM     29  CG  PHE A   2      14.435   9.292  -4.092  1.00  0.00    -0.045 A 
ATOM     30  CD1 PHE A   2      13.898  10.048  -3.033  1.00  0.00     0.004 A 
ATOM     31  CD2 PHE A   2      13.964   7.991  -4.310  1.00  0.00     0.004 A 
ATOM     32  CE1 PHE A   2      12.866   9.535  -2.258  1.00  0.00     0.000 A 
ATOM     33  CE2 PHE A   2      12.937   7.477  -3.520  1.00  0.00     0.000 A 
ATOM     34  CZ  PHE A   2      12.384   8.251  -2.500  1.00  0.00     0.000 A 
ENDBRANCH  28  29
ENDBRANCH  16  28
ENDBRANCH  13  16
ENDBRANCH  11  12
BRANCH  11  35
ATOM     35  CB  LEU A   3      20.164  12.252  -5.216  1.00  0.00     0.038 C 
BRANCH  35  36
ATOM     36  CG  LEU A   3      20.417  11.679  -3.791  1.00  0.00    -0.015 C 
ATOM     37  CD1 LEU A   3      21.819  12.066  -3.316  1.00  0.00     0.007 C 
ATOM     38  CD2 LEU A   3      19.369  12.169  -2.781  1.00  0.00     0.007 C 
ENDBRANCH  35  36
ENDBRANCH  11  35
ENDBRANCH   8  11
ENDBRANCH   5   7
ENDBRANCH   1   5
BRANCH   3  39
ATOM     39  CA  ARG A   5      25.181   9.116  -8.069  1.00  0.00     0.171 C 
BRANCH  39  40
ATOM     40  C   ARG A   5      25.902   7.967  -8.683  1.00  0.00     0.243 C 
ATOM     41  N   LYS A   6      25.928   7.876 -10.099  1.00  0.00    -0.341 N 
ATOM     42  O   ARG A   5      26.445   7.082  -7.969  1.00  0.00    -0.273 OA
ATOM     43  H   UNL     1      25.589   8.705 -10.637  1.00  0.00     0.164 HD
BRANCH  41  44
ATOM     44  CA  LYS A   6      26.543   6.760 -10.805  1.00  0.00     0.192 C 
BRANCH  44  45
ATOM     45  C   LYS A   6      27.995   6.646 -10.426  1.00  0.00     0.326 C 
ATOM     46  O   LYS A   6      28.796   7.584 -10.682  1.00  0.00    -0.250 OA
BRANCH  45  47
ATOM     47  OXT LYS A   6      28.457   5.495  -9.795  1.00  0.00    -0.480 OA
ATOM     48  H   UNL     1      29.431   5.401  -9.534  1.00  0.00     0.296 HD
ENDBRANCH  45  47
ENDBRANCH  44  45
BRANCH  44  49
ATOM     49  CB  LYS A   6      26.410   6.957 -12.327  1.00  0.00     0.037 C 
BRANCH  49  50
ATOM     50  CG  LYS A   6      24.962   7.163 -12.823  1.00  0.00     0.004 C 
BRANCH  50  51
ATOM     51  CD  LYS A   6      23.954   6.091 -12.371  1.00  0.00     0.015 C 
BRANCH  51  52
ATOM     52  CE  LYS A   6      24.313   4.687 -12.871  1.00  0.00     0.077 C 
BRANCH  52  53
ATOM     53  NZ  LYS A   6      23.245   3.750 -12.539  1.00  0.00    -0.330 NA
ATOM     54  H   UNL     1      23.492   2.824 -12.957  1.00  0.00     0.118 HD
ATOM     55  H   UNL     1      23.240   3.615 -11.501  1.00  0.00     0.118 HD
ENDBRANCH  52  53
ENDBRANCH  51  52
ENDBRANCH  50  51
ENDBRANCH  49  50
ENDBRANCH  44  49
ENDBRANCH  41  44
ENDBRANCH  39  40
BRANCH  39  56
ATOM     56  CB  ARG A   5      25.855   9.599  -6.790  1.00  0.00     0.037 C 
BRANCH  56  57
ATOM     57  CG  ARG A   5      25.162  10.857  -6.269  1.00  0.00     0.024 C 
BRANCH  57  58
ATOM     58  CD  ARG A   5      25.838  11.390  -5.014  1.00  0.00     0.116 C 
BRANCH  58  59
ATOM     59  NE  ARG A   5      25.377  10.686  -3.819  1.00  0.00    -0.357 N 
ATOM     60  CZ  ARG A   5      25.469  11.281  -2.526  1.00  0.00     0.185 C 
ATOM     61  NH2 ARG A   5      26.107  12.546  -2.352  1.00  0.00    -0.370 N 
ATOM     62  H   UNL     1      24.894   9.763  -3.911  1.00  0.00     0.163 HD
ATOM     63  H   UNL     1      26.080  13.024  -1.423  1.00  0.00     0.159 HD
ATOM     64  H   UNL     1      26.696  12.982  -3.093  1.00  0.00     0.159 HD
BRANCH  60  65
ATOM     65  NH1 ARG A   5      24.954  10.672  -1.506  1.00  0.00    -0.270 NA
ATOM     66  H   UNL     1      24.995  11.077  -0.544  1.00  0.00     0.191 HD
ENDBRANCH  60  65
ENDBRANCH  58  59
ENDBRANCH  57  58
ENDBRANCH  56  57
ENDBRANCH  39  56
ENDBRANCH   3  39
TORSDOF 29
