REMARK SMILES CC[C@H](C)[C@H](NC(=O)[C@H](CC(C)C)NC(=O)[C@H](CCCNC(=N)N)NC(=O)[C@@H](N)CO)C(=O)N[C@@H](CCCNC(=N)N)C(=O)N[C@@H](CC(N)=O)C(=O)O
REMARK SMILES IDX 7 1 8 2 6 3 9 5 14 6 15 7 16 8 17 10 25 11 26 12 27 13 28 15
REMARK SMILES IDX 29 16 30 19 31 20 18 22 19 23 20 24 21 25 22 26 24 27 23 31
REMARK SMILES IDX 10 33 11 34 12 35 13 36 5 37 32 38 34 39 33 40 35 42 43 43
REMARK SMILES IDX 45 44 44 45 46 47 51 48 52 49 53 50 47 52 48 53 49 54 50 55
REMARK SMILES IDX 36 58 37 59 38 60 39 61 40 62 42 63 41 67 3 69 4 70 2 71
REMARK SMILES IDX 1 72
REMARK H PARENT 6 4 14 9 25 14 29 17 29 18 31 21 21 28 24 29 24 30 23 32 34 41
REMARK H PARENT 45 46 53 51 49 56 49 57 39 64 42 65 42 66 41 68
ROOT
ATOM      1  C   LEU A   3       0.555  -0.421   0.634  1.00  0.00     0.243 C 
ATOM      2  O   LEU A   3       0.702   0.561  -0.136  1.00  0.00    -0.273 OA
ATOM      3  N   ILE A   4      -0.350  -1.481   0.284  1.00  0.00    -0.342 N 
ATOM      4  H   UNL     1      -0.614  -2.161   1.030  1.00  0.00     0.164 HD
ENDROOT
BRANCH   1   5
ATOM      5  CA  LEU A   3       1.314  -0.446   1.942  1.00  0.00     0.171 C 
BRANCH   5   6
ATOM      6  N   LEU A   3       2.681   0.054   1.721  1.00  0.00    -0.343 N 
ATOM      7  C   ARG A   2       3.599  -0.617   0.845  1.00  0.00     0.243 C 
ATOM      8  O   ARG A   2       3.336  -1.784   0.450  1.00  0.00    -0.273 OA
ATOM      9  H   UNL     1       3.036   0.873   2.255  1.00  0.00     0.164 HD
BRANCH   7  10
ATOM     10  CA  ARG A   2       4.790   0.135   0.290  1.00  0.00     0.171 C 
BRANCH  10  11
ATOM     11  N   ARG A   2       6.045  -0.590   0.547  1.00  0.00    -0.343 N 
ATOM     12  C   SER A   1       6.451  -1.793  -0.119  1.00  0.00     0.239 C 
ATOM     13  O   SER A   1       5.612  -2.478  -0.760  1.00  0.00    -0.273 OA
ATOM     14  H   UNL     1       6.776  -0.086   1.053  1.00  0.00     0.164 HD
BRANCH  12  15
ATOM     15  CA  SER A   1       7.884  -2.261   0.007  1.00  0.00     0.167 C 
BRANCH  15  16
ATOM     16  N   SER A   1       8.025  -3.643  -0.459  1.00  0.00    -0.318 NA
ATOM     17  H   UNL     1       9.015  -3.952  -0.315  1.00  0.00     0.119 HD
ATOM     18  H   UNL     1       7.441  -4.237   0.168  1.00  0.00     0.119 HD
ENDBRANCH  15  16
BRANCH  15  19
ATOM     19  CB  SER A   1       8.821  -1.329  -0.782  1.00  0.00     0.184 C 
BRANCH  19  20
ATOM     20  OG  SER A   1       8.483  -1.304  -2.144  1.00  0.00    -0.394 OA
ATOM     21  H   UNL     1       8.945  -2.073  -2.559  1.00  0.00     0.210 HD
ENDBRANCH  19  20
ENDBRANCH  15  19
ENDBRANCH  12  15
ENDBRANCH  10  11
BRANCH  10  22
ATOM     22  CB  ARG A   2       4.591   0.460  -1.208  1.00  0.00     0.037 C 
BRANCH  22  23
ATOM     23  CG  ARG A   2       5.753   1.251  -1.841  1.00  0.00     0.024 C 
BRANCH  23  24
ATOM     24  CD  ARG A   2       5.801   2.708  -1.355  1.00  0.00     0.116 C 
BRANCH  24  25
ATOM     25  NE  ARG A   2       6.865   3.450  -2.048  1.00  0.00    -0.357 N 
ATOM     26  CZ  ARG A   2       8.274   3.353  -1.741  1.00  0.00     0.185 C 
ATOM     27  NH2 ARG A   2       9.204   4.087  -2.536  1.00  0.00    -0.370 N 
ATOM     28  H   UNL     1       6.583   4.132  -2.780  1.00  0.00     0.163 HD
ATOM     29  H   UNL     1       8.880   4.702  -3.315  1.00  0.00     0.159 HD
ATOM     30  H   UNL     1      10.227   4.052  -2.320  1.00  0.00     0.159 HD
BRANCH  26  31
ATOM     31  NH1 ARG A   2       8.715   2.640  -0.751  1.00  0.00    -0.270 NA
ATOM     32  H   UNL     1       8.106   2.098  -0.111  1.00  0.00     0.191 HD
ENDBRANCH  26  31
ENDBRANCH  24  25
ENDBRANCH  23  24
ENDBRANCH  22  23
ENDBRANCH  10  22
ENDBRANCH   7  10
ENDBRANCH   5   6
BRANCH   5  33
ATOM     33  CB  LEU A   3       0.598   0.415   3.016  1.00  0.00     0.038 C 
BRANCH  33  34
ATOM     34  CG  LEU A   3      -0.829  -0.075   3.396  1.00  0.00    -0.015 C 
ATOM     35  CD1 LEU A   3      -1.539   0.977   4.261  1.00  0.00     0.007 C 
ATOM     36  CD2 LEU A   3      -0.780  -1.418   4.138  1.00  0.00     0.007 C 
ENDBRANCH  33  34
ENDBRANCH   5  33
ENDBRANCH   1   5
BRANCH   3  37
ATOM     37  CA  ILE A   4      -0.920  -1.595  -1.060  1.00  0.00     0.174 C 
BRANCH  37  38
ATOM     38  C   ILE A   4      -1.872  -0.445  -1.284  1.00  0.00     0.243 C 
ATOM     39  N   ARG A   5      -3.053  -0.314  -0.476  1.00  0.00    -0.343 N 
ATOM     40  O   ILE A   4      -1.582   0.433  -2.154  1.00  0.00    -0.273 OA
ATOM     41  H   UNL     1      -3.216  -1.018   0.270  1.00  0.00     0.164 HD
BRANCH  39  42
ATOM     42  CA  ARG A   5      -4.030   0.766  -0.654  1.00  0.00     0.171 C 
BRANCH  42  43
ATOM     43  C   ARG A   5      -4.338   1.420   0.667  1.00  0.00     0.243 C 
ATOM     44  N   ASN A   6      -4.378   2.851   0.786  1.00  0.00    -0.341 N 
ATOM     45  O   ARG A   5      -4.565   0.699   1.682  1.00  0.00    -0.273 OA
ATOM     46  H   UNL     1      -4.009   3.427   0.005  1.00  0.00     0.164 HD
BRANCH  44  47
ATOM     47  CA  ASN A   6      -4.951   3.512   1.964  1.00  0.00     0.201 C 
BRANCH  47  48
ATOM     48  C   ASN A   6      -6.449   3.358   1.934  1.00  0.00     0.326 C 
ATOM     49  O   ASN A   6      -7.125   3.829   0.980  1.00  0.00    -0.250 OA
BRANCH  48  50
ATOM     50  OXT ASN A   6      -7.088   2.675   2.963  1.00  0.00    -0.480 OA
ATOM     51  H   UNL     1      -8.096   2.563   2.969  1.00  0.00     0.296 HD
ENDBRANCH  48  50
ENDBRANCH  47  48
BRANCH  47  52
ATOM     52  CB  ASN A   6      -4.548   5.002   2.001  1.00  0.00     0.136 C 
BRANCH  52  53
ATOM     53  CG  ASN A   6      -4.955   5.661   3.287  1.00  0.00     0.220 C 
ATOM     54  ND2 ASN A   6      -4.176   5.478   4.472  1.00  0.00    -0.370 N 
ATOM     55  OD1 ASN A   6      -6.011   6.340   3.337  1.00  0.00    -0.275 OA
ATOM     56  H   UNL     1      -3.310   4.904   4.460  1.00  0.00     0.159 HD
ATOM     57  H   UNL     1      -4.485   5.900   5.376  1.00  0.00     0.159 HD
ENDBRANCH  52  53
ENDBRANCH  47  52
ENDBRANCH  44  47
ENDBRANCH  42  43
BRANCH  42  58
ATOM     58  CB  ARG A   5      -5.307   0.243  -1.349  1.00  0.00     0.037 C 
BRANCH  58  59
ATOM     59  CG  ARG A   5      -5.972  -0.944  -0.633  1.00  0.00     0.024 C 
BRANCH  59  60
ATOM     60  CD  ARG A   5      -7.209  -1.452  -1.386  1.00  0.00     0.116 C 
BRANCH  60  61
ATOM     61  NE  ARG A   5      -6.841  -2.126  -2.634  1.00  0.00    -0.357 N 
ATOM     62  CZ  ARG A   5      -7.806  -2.618  -3.585  1.00  0.00     0.185 C 
ATOM     63  NH2 ARG A   5      -7.347  -3.235  -4.783  1.00  0.00    -0.370 N 
ATOM     64  H   UNL     1      -5.831  -2.290  -2.848  1.00  0.00     0.163 HD
ATOM     65  H   UNL     1      -8.033  -3.609  -5.482  1.00  0.00     0.159 HD
ATOM     66  H   UNL     1      -6.319  -3.311  -4.993  1.00  0.00     0.159 HD
BRANCH  62  67
ATOM     67  NH1 ARG A   5      -9.079  -2.533  -3.373  1.00  0.00    -0.270 NA
ATOM     68  H   UNL     1      -9.484  -2.102  -2.514  1.00  0.00     0.191 HD
ENDBRANCH  62  67
ENDBRANCH  60  61
ENDBRANCH  59  60
ENDBRANCH  58  59
ENDBRANCH  42  58
ENDBRANCH  39  42
ENDBRANCH  37  38
BRANCH  37  69
ATOM     69  CB  ILE A   4      -1.625  -2.973  -1.257  1.00  0.00     0.018 C 
ATOM     70  CG1 ILE A   4      -2.269  -3.074  -2.654  1.00  0.00     0.010 C 
BRANCH  69  71
ATOM     71  CG2 ILE A   4      -0.698  -4.188  -0.985  1.00  0.00     0.002 C 
ATOM     72  CD1 ILE A   4       0.570  -4.238  -1.836  1.00  0.00     0.004 C 
ENDBRANCH  69  71
ENDBRANCH  37  69
ENDBRANCH   3  37
TORSDOF 31
