REMARK SMILES CC(C)C[C@H](NC(=O)[C@H](CCC(N)=O)NC(=O)[C@H](C)NC(=O)[C@@H](N)CO)C(=O)N[C@@H](CCCNC(=N)N)C(=O)N[C@@H](CC(N)=O)C(=O)O
REMARK SMILES IDX 7 1 8 2 6 3 9 5 15 6 16 7 17 8 18 10 19 11 20 12 21 13 22 14
REMARK SMILES IDX 23 16 24 17 25 20 26 21 10 23 11 24 12 25 13 26 14 27 5 30
REMARK SMILES IDX 27 31 29 32 28 33 30 35 38 36 40 37 39 38 41 40 46 41 47 42
REMARK SMILES IDX 48 43 42 45 43 46 44 47 45 48 31 51 32 52 33 53 34 54 35 55
REMARK SMILES IDX 37 56 36 60 4 62 2 63 1 64 3 65
REMARK H PARENT 6 4 15 9 20 15 24 18 24 19 26 22 13 28 13 29 29 34 40 39 48 44
REMARK H PARENT 44 49 44 50 34 57 37 58 37 59 36 61
ROOT
ATOM      1  C   GLN A   3      20.036  10.081  -6.466  1.00  0.00     0.243 C 
ATOM      2  O   GLN A   3      20.162   9.163  -5.608  1.00  0.00    -0.273 OA
ATOM      3  N   LEU A   4      20.564   9.922  -7.773  1.00  0.00    -0.343 N 
ATOM      4  H   UNL     1      20.401  10.665  -8.491  1.00  0.00     0.164 HD
ENDROOT
BRANCH   1   5
ATOM      5  CA  GLN A   3      19.319  11.345  -6.131  1.00  0.00     0.171 C 
BRANCH   5   6
ATOM      6  N   GLN A   3      18.063  11.020  -5.494  1.00  0.00    -0.343 N 
ATOM      7  C   ALA A   2      16.869  11.747  -5.734  1.00  0.00     0.242 C 
ATOM      8  O   ALA A   2      16.891  12.790  -6.447  1.00  0.00    -0.273 OA
ATOM      9  H   UNL     1      18.099  10.364  -4.684  1.00  0.00     0.164 HD
BRANCH   7  10
ATOM     10  CA  ALA A   2      15.613  11.295  -5.041  1.00  0.00     0.168 C 
ATOM     11  CB  ALA A   2      15.565   9.763  -4.906  1.00  0.00     0.041 C 
BRANCH  10  12
ATOM     12  N   ALA A   2      14.435  11.733  -5.768  1.00  0.00    -0.343 N 
ATOM     13  C   SER A   1      13.909  13.048  -5.639  1.00  0.00     0.239 C 
ATOM     14  O   SER A   1      14.449  13.865  -4.842  1.00  0.00    -0.273 OA
ATOM     15  H   UNL     1      13.843  11.001  -6.219  1.00  0.00     0.164 HD
BRANCH  13  16
ATOM     16  CA  SER A   1      12.652  13.413  -6.386  1.00  0.00     0.167 C 
BRANCH  16  17
ATOM     17  N   SER A   1      12.468  14.866  -6.382  1.00  0.00    -0.318 NA
ATOM     18  H   UNL     1      12.303  15.175  -5.396  1.00  0.00     0.119 HD
ATOM     19  H   UNL     1      11.583  15.093  -6.892  1.00  0.00     0.119 HD
ENDBRANCH  16  17
BRANCH  16  20
ATOM     20  CB  SER A   1      12.694  12.900  -7.846  1.00  0.00     0.184 C 
BRANCH  20  21
ATOM     21  OG  SER A   1      11.438  13.038  -8.451  1.00  0.00    -0.394 OA
ATOM     22  H   UNL     1      10.858  12.327  -8.070  1.00  0.00     0.210 HD
ENDBRANCH  20  21
ENDBRANCH  16  20
ENDBRANCH  13  16
ENDBRANCH  10  12
ENDBRANCH   7  10
ENDBRANCH   5   6
BRANCH   5  23
ATOM     23  CB  GLN A   3      20.167  12.250  -5.231  1.00  0.00     0.045 C 
BRANCH  23  24
ATOM     24  CG  GLN A   3      20.386  11.717  -3.800  1.00  0.00     0.102 C 
BRANCH  24  25
ATOM     25  CD  GLN A   3      21.767  12.041  -3.325  1.00  0.00     0.217 C 
ATOM     26  NE2 GLN A   3      22.153  13.389  -3.061  1.00  0.00    -0.370 N 
ATOM     27  OE1 GLN A   3      22.595  11.109  -3.169  1.00  0.00    -0.275 OA
ATOM     28  H   UNL     1      23.122  13.606  -2.740  1.00  0.00     0.159 HD
ATOM     29  H   UNL     1      21.473  14.171  -3.188  1.00  0.00     0.159 HD
ENDBRANCH  24  25
ENDBRANCH  23  24
ENDBRANCH   5  23
ENDBRANCH   1   5
BRANCH   3  30
ATOM     30  CA  LEU A   4      21.348   8.761  -8.141  1.00  0.00     0.171 C 
BRANCH  30  31
ATOM     31  C   LEU A   4      22.714   9.217  -8.521  1.00  0.00     0.243 C 
ATOM     32  N   ARG A   5      23.822   8.721  -7.785  1.00  0.00    -0.343 N 
ATOM     33  O   LEU A   4      22.878  10.033  -9.469  1.00  0.00    -0.273 OA
ATOM     34  H   UNL     1      23.667   8.031  -7.015  1.00  0.00     0.164 HD
BRANCH  32  35
ATOM     35  CA  ARG A   5      25.186   9.123  -8.072  1.00  0.00     0.171 C 
BRANCH  35  36
ATOM     36  C   ARG A   5      25.900   7.968  -8.685  1.00  0.00     0.243 C 
ATOM     37  N   ASN A   6      25.913   7.865 -10.102  1.00  0.00    -0.341 N 
ATOM     38  O   ARG A   5      26.447   7.087  -7.969  1.00  0.00    -0.273 OA
ATOM     39  H   UNL     1      25.488   8.647 -10.651  1.00  0.00     0.164 HD
BRANCH  37  40
ATOM     40  CA  ASN A   6      26.542   6.751 -10.804  1.00  0.00     0.201 C 
BRANCH  40  41
ATOM     41  C   ASN A   6      27.993   6.642 -10.416  1.00  0.00     0.326 C 
ATOM     42  O   ASN A   6      28.794   7.579 -10.677  1.00  0.00    -0.250 OA
BRANCH  41  43
ATOM     43  OXT ASN A   6      28.451   5.499  -9.768  1.00  0.00    -0.480 OA
ATOM     44  H   UNL     1      29.424   5.409  -9.499  1.00  0.00     0.296 HD
ENDBRANCH  41  43
ENDBRANCH  40  41
BRANCH  40  45
ATOM     45  CB  ASN A   6      26.424   6.947 -12.323  1.00  0.00     0.136 C 
BRANCH  45  46
ATOM     46  CG  ASN A   6      25.010   7.181 -12.773  1.00  0.00     0.220 C 
ATOM     47  ND2 ASN A   6      24.753   8.090 -13.833  1.00  0.00    -0.370 N 
ATOM     48  OD1 ASN A   6      24.053   6.558 -12.243  1.00  0.00    -0.275 OA
ATOM     49  H   UNL     1      23.775   8.258 -14.156  1.00  0.00     0.159 HD
ATOM     50  H   UNL     1      25.533   8.600 -14.306  1.00  0.00     0.159 HD
ENDBRANCH  45  46
ENDBRANCH  40  45
ENDBRANCH  37  40
ENDBRANCH  35  36
BRANCH  35  51
ATOM     51  CB  ARG A   5      25.863   9.606  -6.795  1.00  0.00     0.037 C 
BRANCH  51  52
ATOM     52  CG  ARG A   5      25.162  10.857  -6.265  1.00  0.00     0.024 C 
BRANCH  52  53
ATOM     53  CD  ARG A   5      25.842  11.393  -5.014  1.00  0.00     0.116 C 
BRANCH  53  54
ATOM     54  NE  ARG A   5      25.401  10.681  -3.817  1.00  0.00    -0.357 N 
ATOM     55  CZ  ARG A   5      25.487  11.279  -2.524  1.00  0.00     0.185 C 
ATOM     56  NH2 ARG A   5      26.109  12.552  -2.352  1.00  0.00    -0.370 N 
ATOM     57  H   UNL     1      24.951   9.741  -3.905  1.00  0.00     0.163 HD
ATOM     58  H   UNL     1      26.696  12.991  -3.094  1.00  0.00     0.159 HD
ATOM     59  H   UNL     1      26.071  13.034  -1.426  1.00  0.00     0.159 HD
BRANCH  55  60
ATOM     60  NH1 ARG A   5      24.975  10.668  -1.503  1.00  0.00    -0.270 NA
ATOM     61  H   UNL     1      25.009  11.077  -0.542  1.00  0.00     0.191 HD
ENDBRANCH  55  60
ENDBRANCH  53  54
ENDBRANCH  52  53
ENDBRANCH  51  52
ENDBRANCH  35  51
ENDBRANCH  32  35
ENDBRANCH  30  31
BRANCH  30  62
ATOM     62  CB  LEU A   4      20.655   8.000  -9.273  1.00  0.00     0.038 C 
BRANCH  62  63
ATOM     63  CG  LEU A   4      21.448   6.771  -9.769  1.00  0.00    -0.015 C 
ATOM     64  CD1 LEU A   4      21.762   5.779  -8.639  1.00  0.00     0.007 C 
ATOM     65  CD2 LEU A   4      20.661   6.067 -10.878  1.00  0.00     0.007 C 
ENDBRANCH  62  63
ENDBRANCH  30  62
ENDBRANCH   3  30
TORSDOF 27
