REMARK SMILES N=C(N)NCCC[C@H](NC(=O)CNC(=O)[C@H](CCCCN)NC(=O)[C@H](Cc1ccccc1)NC(=O)[C@@H](N)CO)C(=O)N[C@@H](CC(N)=O)C(=O)O
REMARK SMILES IDX 14 1 15 2 13 3 16 5 22 6 23 7 24 8 25 10 33 11 34 12 35 13
REMARK SMILES IDX 36 15 37 16 38 19 39 20 26 22 27 23 28 24 32 25 29 26 31 27
REMARK SMILES IDX 30 28 17 29 18 30 19 31 20 32 21 33 12 36 10 37 9 38 11 39
REMARK SMILES IDX 8 41 40 42 42 43 41 44 43 46 48 47 49 48 50 49 44 51 45 52
REMARK SMILES IDX 46 53 47 54 7 57 6 58 5 59 4 60 2 61 3 62 1 66
REMARK H PARENT 13 4 22 9 33 14 37 17 37 18 39 21 21 34 21 35 9 40 42 45 50 50
REMARK H PARENT 46 55 46 56 4 63 3 64 3 65 1 67
ROOT
ATOM      1  C   LYS A   3      20.045  10.074  -6.479  1.00  0.00     0.243 C 
ATOM      2  O   LYS A   3      20.168   9.152  -5.626  1.00  0.00    -0.273 OA
ATOM      3  N   GLY A   4      20.557   9.912  -7.792  1.00  0.00    -0.345 N 
ATOM      4  H   UNL     1      20.396  10.662  -8.503  1.00  0.00     0.164 HD
ENDROOT
BRANCH   1   5
ATOM      5  CA  LYS A   3      19.340  11.349  -6.143  1.00  0.00     0.171 C 
BRANCH   5   6
ATOM      6  N   LYS A   3      18.089  11.043  -5.499  1.00  0.00    -0.343 N 
ATOM      7  C   PHE A   2      16.888  11.747  -5.771  1.00  0.00     0.243 C 
ATOM      8  O   PHE A   2      16.905  12.790  -6.482  1.00  0.00    -0.273 OA
ATOM      9  H   UNL     1      18.166  10.504  -4.612  1.00  0.00     0.164 HD
BRANCH   7  10
ATOM     10  CA  PHE A   2      15.652  11.312  -5.058  1.00  0.00     0.175 C 
BRANCH  10  11
ATOM     11  N   PHE A   2      14.456  11.740  -5.768  1.00  0.00    -0.343 N 
ATOM     12  C   SER A   1      13.918  13.050  -5.633  1.00  0.00     0.239 C 
ATOM     13  O   SER A   1      14.449  13.867  -4.832  1.00  0.00    -0.273 OA
ATOM     14  H   UNL     1      13.867  11.002  -6.211  1.00  0.00     0.164 HD
BRANCH  12  15
ATOM     15  CA  SER A   1      12.662  13.411  -6.386  1.00  0.00     0.167 C 
BRANCH  15  16
ATOM     16  N   SER A   1      12.454  14.861  -6.398  1.00  0.00    -0.318 NA
ATOM     17  H   UNL     1      13.315  15.337  -6.755  1.00  0.00     0.119 HD
ATOM     18  H   UNL     1      12.286  15.191  -5.420  1.00  0.00     0.119 HD
ENDBRANCH  15  16
BRANCH  15  19
ATOM     19  CB  SER A   1      12.690  12.887  -7.840  1.00  0.00     0.184 C 
BRANCH  19  20
ATOM     20  OG  SER A   1      11.438  13.053  -8.445  1.00  0.00    -0.394 OA
ATOM     21  H   UNL     1      10.839  12.361  -8.060  1.00  0.00     0.210 HD
ENDBRANCH  19  20
ENDBRANCH  15  19
ENDBRANCH  12  15
ENDBRANCH  10  11
BRANCH  10  22
ATOM     22  CB  PHE A   2      15.613   9.773  -4.890  1.00  0.00     0.070 C 
BRANCH  22  23
ATOM     23  CG  PHE A   2      14.444   9.289  -4.090  1.00  0.00    -0.045 A 
ATOM     24  CD1 PHE A   2      13.903  10.046  -3.033  1.00  0.00     0.004 A 
ATOM     25  CD2 PHE A   2      13.968   7.989  -4.310  1.00  0.00     0.004 A 
ATOM     26  CE1 PHE A   2      12.869   9.536  -2.260  1.00  0.00     0.000 A 
ATOM     27  CE2 PHE A   2      12.939   7.477  -3.521  1.00  0.00     0.000 A 
ATOM     28  CZ  PHE A   2      12.386   8.252  -2.502  1.00  0.00     0.000 A 
ENDBRANCH  22  23
ENDBRANCH  10  22
ENDBRANCH   7  10
ENDBRANCH   5   6
BRANCH   5  29
ATOM     29  CB  LYS A   3      20.192  12.249  -5.243  1.00  0.00     0.035 C 
BRANCH  29  30
ATOM     30  CG  LYS A   3      20.429  11.707  -3.814  1.00  0.00     0.004 C 
BRANCH  30  31
ATOM     31  CD  LYS A   3      21.827  12.061  -3.293  1.00  0.00     0.015 C 
BRANCH  31  32
ATOM     32  CE  LYS A   3      22.006  13.552  -2.969  1.00  0.00     0.077 C 
BRANCH  32  33
ATOM     33  NZ  LYS A   3      22.163  14.342  -4.186  1.00  0.00    -0.330 NA
ATOM     34  H   UNL     1      22.222  15.348  -3.907  1.00  0.00     0.118 HD
ATOM     35  H   UNL     1      23.085  14.098  -4.617  1.00  0.00     0.118 HD
ENDBRANCH  32  33
ENDBRANCH  31  32
ENDBRANCH  30  31
ENDBRANCH  29  30
ENDBRANCH   5  29
ENDBRANCH   1   5
BRANCH   3  36
ATOM     36  CA  GLY A   4      21.332   8.756  -8.197  1.00  0.00     0.216 C 
BRANCH  36  37
ATOM     37  C   GLY A   4      22.705   9.205  -8.537  1.00  0.00     0.240 C 
ATOM     38  N   ARG A   5      23.806   8.709  -7.788  1.00  0.00    -0.343 N 
ATOM     39  O   GLY A   4      22.882  10.030  -9.473  1.00  0.00    -0.273 OA
ATOM     40  H   UNL     1      23.640   7.992  -7.044  1.00  0.00     0.164 HD
BRANCH  38  41
ATOM     41  CA  ARG A   5      25.174   9.114  -8.068  1.00  0.00     0.171 C 
BRANCH  41  42
ATOM     42  C   ARG A   5      25.896   7.965  -8.684  1.00  0.00     0.243 C 
ATOM     43  N   ASN A   6      25.915   7.866 -10.101  1.00  0.00    -0.341 N 
ATOM     44  O   ARG A   5      26.447   7.086  -7.968  1.00  0.00    -0.273 OA
ATOM     45  H   UNL     1      25.496   8.652 -10.649  1.00  0.00     0.164 HD
BRANCH  43  46
ATOM     46  CA  ASN A   6      26.543   6.752 -10.803  1.00  0.00     0.201 C 
BRANCH  46  47
ATOM     47  C   ASN A   6      27.993   6.642 -10.416  1.00  0.00     0.326 C 
ATOM     48  O   ASN A   6      28.795   7.579 -10.677  1.00  0.00    -0.250 OA
BRANCH  47  49
ATOM     49  OXT ASN A   6      28.452   5.499  -9.769  1.00  0.00    -0.480 OA
ATOM     50  H   UNL     1      29.425   5.409  -9.501  1.00  0.00     0.296 HD
ENDBRANCH  47  49
ENDBRANCH  46  47
BRANCH  46  51
ATOM     51  CB  ASN A   6      26.424   6.947 -12.323  1.00  0.00     0.136 C 
BRANCH  51  52
ATOM     52  CG  ASN A   6      25.010   7.182 -12.772  1.00  0.00     0.220 C 
ATOM     53  ND2 ASN A   6      24.754   8.089 -13.834  1.00  0.00    -0.370 N 
ATOM     54  OD1 ASN A   6      24.051   6.563 -12.238  1.00  0.00    -0.275 OA
ATOM     55  H   UNL     1      23.775   8.257 -14.157  1.00  0.00     0.159 HD
ATOM     56  H   UNL     1      25.534   8.596 -14.309  1.00  0.00     0.159 HD
ENDBRANCH  51  52
ENDBRANCH  46  51
ENDBRANCH  43  46
ENDBRANCH  41  42
BRANCH  41  57
ATOM     57  CB  ARG A   5      25.851   9.598  -6.790  1.00  0.00     0.037 C 
BRANCH  57  58
ATOM     58  CG  ARG A   5      25.162  10.860  -6.271  1.00  0.00     0.024 C 
BRANCH  58  59
ATOM     59  CD  ARG A   5      25.836  11.392  -5.015  1.00  0.00     0.116 C 
BRANCH  59  60
ATOM     60  NE  ARG A   5      25.376  10.685  -3.823  1.00  0.00    -0.357 N 
ATOM     61  CZ  ARG A   5      25.467  11.280  -2.527  1.00  0.00     0.185 C 
ATOM     62  NH2 ARG A   5      26.103  12.543  -2.351  1.00  0.00    -0.370 N 
ATOM     63  H   UNL     1      24.896   9.761  -3.921  1.00  0.00     0.163 HD
ATOM     64  H   UNL     1      26.076  13.011  -1.417  1.00  0.00     0.159 HD
ATOM     65  H   UNL     1      26.688  12.985  -3.092  1.00  0.00     0.159 HD
BRANCH  61  66
ATOM     66  NH1 ARG A   5      24.956  10.680  -1.500  1.00  0.00    -0.270 NA
ATOM     67  H   UNL     1      24.474   9.757  -1.583  1.00  0.00     0.191 HD
ENDBRANCH  61  66
ENDBRANCH  59  60
ENDBRANCH  58  59
ENDBRANCH  57  58
ENDBRANCH  41  57
ENDBRANCH  38  41
ENDBRANCH  36  37
ENDBRANCH   3  36
TORSDOF 29
