REMARK SMILES CC(C)C[C@H](NC(=O)[C@@H](NC(=O)[C@@H](N)CO)C(C)C)C(=O)N[C@@H](Cc1c[nH]cn1)C(=O)N[C@@H](CCCNC(=N)N)C(=O)N[C@@H](CC(N)=O)C(=O)O
REMARK SMILES IDX 20 1 21 2 22 3 5 5 6 6 7 7 8 8 9 10 10 11 11 12 12 13 13 15
REMARK SMILES IDX 14 16 15 19 16 20 17 22 18 23 19 24 4 25 2 26 1 27 3 28
REMARK SMILES IDX 23 29 30 30 32 31 31 32 33 34 41 35 43 36 42 37 44 39 49 40
REMARK SMILES IDX 50 41 51 42 45 44 46 45 47 46 48 47 34 50 35 51 36 52 37 53
REMARK SMILES IDX 38 54 40 55 39 59 24 61 25 62 29 63 26 64 28 65 27 66
REMARK H PARENT 22 4 6 9 10 14 14 17 14 18 16 21 32 33 43 38 51 43 47 48 47 49
REMARK H PARENT 37 56 40 57 40 58 39 60 27 67
ROOT
ATOM      1  C   LEU A   3      20.047  10.080  -6.475  1.00  0.00     0.243 C 
ATOM      2  O   LEU A   3      20.163   9.156  -5.623  1.00  0.00    -0.273 OA
ATOM      3  N   HIS A   4      20.563   9.912  -7.785  1.00  0.00    -0.342 N 
ATOM      4  H   UNL     1      20.399  10.655  -8.503  1.00  0.00     0.164 HD
ENDROOT
BRANCH   1   5
ATOM      5  CA  LEU A   3      19.332  11.350  -6.140  1.00  0.00     0.171 C 
BRANCH   5   6
ATOM      6  N   LEU A   3      18.076  11.019  -5.519  1.00  0.00    -0.343 N 
ATOM      7  C   VAL A   2      16.876  11.744  -5.746  1.00  0.00     0.243 C 
ATOM      8  O   VAL A   2      16.891  12.793  -6.449  1.00  0.00    -0.273 OA
ATOM      9  H   UNL     1      18.143  10.364  -4.715  1.00  0.00     0.164 HD
BRANCH   7  10
ATOM     10  CA  VAL A   2      15.622  11.276  -5.055  1.00  0.00     0.173 C 
BRANCH  10  11
ATOM     11  N   VAL A   2      14.437  11.732  -5.768  1.00  0.00    -0.343 N 
ATOM     12  C   SER A   1      13.915  13.049  -5.638  1.00  0.00     0.239 C 
ATOM     13  O   SER A   1      14.450  13.864  -4.837  1.00  0.00    -0.273 OA
ATOM     14  H   UNL     1      13.825  11.017  -6.209  1.00  0.00     0.164 HD
BRANCH  12  15
ATOM     15  CA  SER A   1      12.663  13.415  -6.390  1.00  0.00     0.167 C 
BRANCH  15  16
ATOM     16  N   SER A   1      12.474  14.867  -6.373  1.00  0.00    -0.318 NA
ATOM     17  H   UNL     1      13.209  15.323  -6.963  1.00  0.00     0.119 HD
ATOM     18  H   UNL     1      11.545  15.094  -6.795  1.00  0.00     0.119 HD
ENDBRANCH  15  16
BRANCH  15  19
ATOM     19  CB  SER A   1      12.689  12.888  -7.849  1.00  0.00     0.184 C 
BRANCH  19  20
ATOM     20  OG  SER A   1      11.435  13.048  -8.451  1.00  0.00    -0.394 OA
ATOM     21  H   UNL     1      10.838  12.359  -8.056  1.00  0.00     0.210 HD
ENDBRANCH  19  20
ENDBRANCH  15  19
ENDBRANCH  12  15
ENDBRANCH  10  11
BRANCH  10  22
ATOM     22  CB  VAL A   2      15.585   9.722  -4.892  1.00  0.00     0.015 C 
ATOM     23  CG1 VAL A   2      14.379   9.268  -4.076  1.00  0.00     0.010 C 
ATOM     24  CG2 VAL A   2      15.664   8.945  -6.222  1.00  0.00     0.010 C 
ENDBRANCH  10  22
ENDBRANCH   7  10
ENDBRANCH   5   6
BRANCH   5  25
ATOM     25  CB  LEU A   3      20.162  12.250  -5.216  1.00  0.00     0.038 C 
BRANCH  25  26
ATOM     26  CG  LEU A   3      20.417  11.679  -3.791  1.00  0.00    -0.015 C 
ATOM     27  CD1 LEU A   3      21.819  12.067  -3.318  1.00  0.00     0.007 C 
ATOM     28  CD2 LEU A   3      19.369  12.169  -2.780  1.00  0.00     0.007 C 
ENDBRANCH  25  26
ENDBRANCH   5  25
ENDBRANCH   1   5
BRANCH   3  29
ATOM     29  CA  HIS A   4      21.346   8.748  -8.157  1.00  0.00     0.177 C 
BRANCH  29  30
ATOM     30  C   HIS A   4      22.713   9.208  -8.528  1.00  0.00     0.243 C 
ATOM     31  N   ARG A   5      23.820   8.711  -7.790  1.00  0.00    -0.343 N 
ATOM     32  O   HIS A   4      22.879  10.033  -9.468  1.00  0.00    -0.273 OA
ATOM     33  H   UNL     1      23.663   7.989  -7.049  1.00  0.00     0.164 HD
BRANCH  31  34
ATOM     34  CA  ARG A   5      25.183   9.118  -8.072  1.00  0.00     0.171 C 
BRANCH  34  35
ATOM     35  C   ARG A   5      25.901   7.967  -8.686  1.00  0.00     0.243 C 
ATOM     36  N   ASN A   6      25.914   7.864 -10.102  1.00  0.00    -0.341 N 
ATOM     37  O   ARG A   5      26.449   7.086  -7.970  1.00  0.00    -0.273 OA
ATOM     38  H   UNL     1      25.490   8.648 -10.651  1.00  0.00     0.164 HD
BRANCH  36  39
ATOM     39  CA  ASN A   6      26.542   6.751 -10.804  1.00  0.00     0.201 C 
BRANCH  39  40
ATOM     40  C   ASN A   6      27.993   6.642 -10.416  1.00  0.00     0.326 C 
ATOM     41  O   ASN A   6      28.794   7.578 -10.676  1.00  0.00    -0.250 OA
BRANCH  40  42
ATOM     42  OXT ASN A   6      28.451   5.498  -9.769  1.00  0.00    -0.480 OA
ATOM     43  H   UNL     1      29.423   5.408  -9.499  1.00  0.00     0.296 HD
ENDBRANCH  40  42
ENDBRANCH  39  40
BRANCH  39  44
ATOM     44  CB  ASN A   6      26.426   6.948 -12.324  1.00  0.00     0.136 C 
BRANCH  44  45
ATOM     45  CG  ASN A   6      25.013   7.184 -12.775  1.00  0.00     0.220 C 
ATOM     46  ND2 ASN A   6      24.757   8.092 -13.836  1.00  0.00    -0.370 N 
ATOM     47  OD1 ASN A   6      24.056   6.565 -12.243  1.00  0.00    -0.275 OA
ATOM     48  H   UNL     1      23.778   8.260 -14.159  1.00  0.00     0.159 HD
ATOM     49  H   UNL     1      25.537   8.600 -14.310  1.00  0.00     0.159 HD
ENDBRANCH  44  45
ENDBRANCH  39  44
ENDBRANCH  36  39
ENDBRANCH  34  35
BRANCH  34  50
ATOM     50  CB  ARG A   5      25.858   9.601  -6.793  1.00  0.00     0.037 C 
BRANCH  50  51
ATOM     51  CG  ARG A   5      25.163  10.858  -6.270  1.00  0.00     0.024 C 
BRANCH  51  52
ATOM     52  CD  ARG A   5      25.838  11.390  -5.014  1.00  0.00     0.116 C 
BRANCH  52  53
ATOM     53  NE  ARG A   5      25.378  10.686  -3.820  1.00  0.00    -0.357 N 
ATOM     54  CZ  ARG A   5      25.469  11.281  -2.526  1.00  0.00     0.185 C 
ATOM     55  NH2 ARG A   5      26.107  12.546  -2.352  1.00  0.00    -0.370 N 
ATOM     56  H   UNL     1      24.894   9.763  -3.911  1.00  0.00     0.163 HD
ATOM     57  H   UNL     1      26.080  13.024  -1.424  1.00  0.00     0.159 HD
ATOM     58  H   UNL     1      26.696  12.982  -3.094  1.00  0.00     0.159 HD
BRANCH  54  59
ATOM     59  NH1 ARG A   5      24.954  10.672  -1.507  1.00  0.00    -0.270 NA
ATOM     60  H   UNL     1      24.995  11.077  -0.545  1.00  0.00     0.191 HD
ENDBRANCH  54  59
ENDBRANCH  52  53
ENDBRANCH  51  52
ENDBRANCH  50  51
ENDBRANCH  34  50
ENDBRANCH  31  34
ENDBRANCH  29  30
BRANCH  29  61
ATOM     61  CB  HIS A   4      20.663   8.002  -9.306  1.00  0.00     0.093 C 
BRANCH  61  62
ATOM     62  CG  HIS A   4      21.412   6.771  -9.740  1.00  0.00     0.061 A 
ATOM     63  ND1 HIS A   4      22.256   6.067  -8.955  1.00  0.00    -0.242 NA
ATOM     64  CD2 HIS A   4      21.208   6.096 -10.922  1.00  0.00     0.107 A 
ATOM     65  CE1 HIS A   4      22.573   4.989  -9.702  1.00  0.00     0.196 A 
ATOM     66  NE2 HIS A   4      21.948   4.977 -10.894  1.00  0.00    -0.351 N 
ATOM     67  H   UNL     1      22.016   4.247 -11.636  1.00  0.00     0.167 HD
ENDBRANCH  61  62
ENDBRANCH  29  61
ENDBRANCH   3  29
TORSDOF 27
