REMARK SMILES CC(C)C[C@H](NC(=O)[C@H](CC(N)=O)NC(=O)[C@H](C)NC(=O)[C@@H](N)CO)C(=O)N[C@@H](CCCNC(=N)N)C(=O)N[C@@H](CC(N)=O)C(=O)O
REMARK SMILES IDX 7 1 8 2 6 3 9 5 14 6 15 7 16 8 17 10 18 11 19 12 20 13 21 14
REMARK SMILES IDX 22 16 23 17 24 20 25 21 10 23 11 24 12 25 13 26 5 29 26 30
REMARK SMILES IDX 28 31 27 32 29 34 37 35 39 36 38 37 40 39 45 40 46 41 47 42
REMARK SMILES IDX 41 44 42 45 43 46 44 47 30 50 31 51 32 52 33 53 34 54 36 55
REMARK SMILES IDX 35 59 4 61 2 62 1 63 3 64
REMARK H PARENT 6 4 14 9 19 15 23 18 23 19 25 22 12 27 12 28 28 33 39 38 47 43
REMARK H PARENT 43 48 43 49 33 56 36 57 36 58 35 60
ROOT
ATOM      1  C   ASN A   3       2.193  -0.173  -1.629  1.00  0.00     0.243 C 
ATOM      2  O   ASN A   3       2.525  -1.021  -2.504  1.00  0.00    -0.273 OA
ATOM      3  N   LEU A   4       0.938  -0.289  -0.942  1.00  0.00    -0.342 N 
ATOM      4  H   UNL     1       0.724   0.392  -0.177  1.00  0.00     0.164 HD
ENDROOT
BRANCH   1   5
ATOM      5  CA  ASN A   3       3.113   0.980  -1.325  1.00  0.00     0.180 C 
BRANCH   5   6
ATOM      6  N   ASN A   3       4.500   0.511  -1.263  1.00  0.00    -0.342 N 
ATOM      7  C   ALA A   2       5.059  -0.027  -0.054  1.00  0.00     0.242 C 
ATOM      8  O   ALA A   2       4.423   0.061   1.033  1.00  0.00    -0.273 OA
ATOM      9  H   UNL     1       5.025   0.351  -2.159  1.00  0.00     0.164 HD
BRANCH   7  10
ATOM     10  CA  ALA A   2       6.366  -0.773  -0.092  1.00  0.00     0.168 C 
ATOM     11  CB  ALA A   2       6.101  -2.277  -0.211  1.00  0.00     0.041 C 
BRANCH  10  12
ATOM     12  N   ALA A   2       7.140  -0.491   1.119  1.00  0.00    -0.343 N 
ATOM     13  C   SER A   1       7.953   0.684   1.248  1.00  0.00     0.239 C 
ATOM     14  O   SER A   1       8.128   1.447   0.258  1.00  0.00    -0.273 OA
ATOM     15  H   UNL     1       6.962  -1.073   1.973  1.00  0.00     0.164 HD
BRANCH  13  16
ATOM     16  CA  SER A   1       8.546   1.049   2.585  1.00  0.00     0.167 C 
BRANCH  16  17
ATOM     17  N   SER A   1       9.877   1.636   2.410  1.00  0.00    -0.318 NA
ATOM     18  H   UNL     1      10.486   0.928   1.941  1.00  0.00     0.119 HD
ATOM     19  H   UNL     1      10.291   1.786   3.361  1.00  0.00     0.119 HD
ENDBRANCH  16  17
BRANCH  16  20
ATOM     20  CB  SER A   1       7.624   2.019   3.344  1.00  0.00     0.184 C 
BRANCH  20  21
ATOM     21  OG  SER A   1       7.578   3.274   2.712  1.00  0.00    -0.394 OA
ATOM     22  H   UNL     1       6.950   3.194   1.950  1.00  0.00     0.210 HD
ENDBRANCH  20  21
ENDBRANCH  16  20
ENDBRANCH  13  16
ENDBRANCH  10  12
ENDBRANCH   7  10
ENDBRANCH   5   6
BRANCH   5  23
ATOM     23  CB  ASN A   3       2.955   2.129  -2.340  1.00  0.00     0.134 C 
BRANCH  23  24
ATOM     24  CG  ASN A   3       3.146   1.705  -3.768  1.00  0.00     0.220 C 
ATOM     25  ND2 ASN A   3       2.040   1.239  -4.540  1.00  0.00    -0.370 N 
ATOM     26  OD1 ASN A   3       4.296   1.738  -4.282  1.00  0.00    -0.275 OA
ATOM     27  H   UNL     1       1.083   1.197  -4.129  1.00  0.00     0.159 HD
ATOM     28  H   UNL     1       2.174   0.931  -5.530  1.00  0.00     0.159 HD
ENDBRANCH  23  24
ENDBRANCH   5  23
ENDBRANCH   1   5
BRANCH   3  29
ATOM     29  CA  LEU A   4      -0.062  -1.314  -1.254  1.00  0.00     0.171 C 
BRANCH  29  30
ATOM     30  C   LEU A   4      -1.353  -0.614  -1.633  1.00  0.00     0.243 C 
ATOM     31  N   ARG A   5      -2.639  -1.001  -1.112  1.00  0.00    -0.343 N 
ATOM     32  O   LEU A   4      -1.282   0.333  -2.464  1.00  0.00    -0.273 OA
ATOM     33  H   UNL     1      -2.732  -1.857  -0.522  1.00  0.00     0.164 HD
BRANCH  31  34
ATOM     34  CA  ARG A   5      -3.840  -0.184  -1.329  1.00  0.00     0.171 C 
BRANCH  34  35
ATOM     35  C   ARG A   5      -4.865  -0.519  -0.268  1.00  0.00     0.243 C 
ATOM     36  N   ASN A   6      -4.682  -0.039   1.073  1.00  0.00    -0.341 N 
ATOM     37  O   ARG A   5      -5.826  -1.291  -0.529  1.00  0.00    -0.273 OA
ATOM     38  H   UNL     1      -3.912   0.648   1.245  1.00  0.00     0.164 HD
BRANCH  36  39
ATOM     39  CA  ASN A   6      -5.337  -0.687   2.217  1.00  0.00     0.201 C 
BRANCH  39  40
ATOM     40  C   ASN A   6      -6.823  -0.446   2.219  1.00  0.00     0.326 C 
ATOM     41  O   ASN A   6      -7.321   0.536   1.599  1.00  0.00    -0.250 OA
BRANCH  40  42
ATOM     42  OXT ASN A   6      -7.657  -1.304   2.931  1.00  0.00    -0.480 OA
ATOM     43  H   UNL     1      -8.658  -1.168   2.931  1.00  0.00     0.296 HD
ENDBRANCH  40  42
ENDBRANCH  39  40
BRANCH  39  44
ATOM     44  CB  ASN A   6      -4.695  -0.261   3.556  1.00  0.00     0.136 C 
BRANCH  44  45
ATOM     45  CG  ASN A   6      -4.669   1.228   3.802  1.00  0.00     0.220 C 
ATOM     46  ND2 ASN A   6      -3.603   1.802   4.567  1.00  0.00    -0.370 N 
ATOM     47  OD1 ASN A   6      -5.620   1.961   3.415  1.00  0.00    -0.275 OA
ATOM     48  H   UNL     1      -2.843   1.205   4.964  1.00  0.00     0.159 HD
ATOM     49  H   UNL     1      -3.599   2.828   4.769  1.00  0.00     0.159 HD
ENDBRANCH  44  45
ENDBRANCH  39  44
ENDBRANCH  36  39
ENDBRANCH  34  35
BRANCH  34  50
ATOM     50  CB  ARG A   5      -4.370  -0.391  -2.774  1.00  0.00     0.037 C 
BRANCH  50  51
ATOM     51  CG  ARG A   5      -5.010   0.868  -3.388  1.00  0.00     0.024 C 
BRANCH  51  52
ATOM     52  CD  ARG A   5      -6.441   1.153  -2.903  1.00  0.00     0.116 C 
BRANCH  52  53
ATOM     53  NE  ARG A   5      -6.448   1.913  -1.652  1.00  0.00    -0.357 N 
ATOM     54  CZ  ARG A   5      -7.653   2.431  -1.057  1.00  0.00     0.185 C 
ATOM     55  NH2 ARG A   5      -7.564   3.215   0.140  1.00  0.00    -0.370 N 
ATOM     56  H   UNL     1      -5.544   2.148  -1.180  1.00  0.00     0.163 HD
ATOM     57  H   UNL     1      -6.648   3.349   0.619  1.00  0.00     0.159 HD
ATOM     58  H   UNL     1      -8.426   3.600   0.586  1.00  0.00     0.159 HD
BRANCH  54  59
ATOM     59  NH1 ARG A   5      -8.812   2.256  -1.610  1.00  0.00    -0.270 NA
ATOM     60  H   UNL     1      -8.956   1.707  -2.492  1.00  0.00     0.191 HD
ENDBRANCH  54  59
ENDBRANCH  52  53
ENDBRANCH  51  52
ENDBRANCH  50  51
ENDBRANCH  34  50
ENDBRANCH  31  34
ENDBRANCH  29  30
BRANCH  29  61
ATOM     61  CB  LEU A   4      -0.197  -2.293  -0.067  1.00  0.00     0.038 C 
BRANCH  61  62
ATOM     62  CG  LEU A   4       1.144  -2.936   0.376  1.00  0.00    -0.015 C 
ATOM     63  CD1 LEU A   4       1.689  -3.915  -0.677  1.00  0.00     0.007 C 
ATOM     64  CD2 LEU A   4       0.956  -3.675   1.707  1.00  0.00     0.007 C 
ENDBRANCH  61  62
ENDBRANCH  29  61
ENDBRANCH   3  29
TORSDOF 26
