REMARK SMILES N=C(N)NCCC[C@H](NC(=O)[C@@H]1CCCN1C(=O)[C@H](CCCCN)NC(=O)[C@H](Cc1ccccc1)NC(=O)[C@@H](N)CO)C(=O)N[C@@H](CC(N)=O)C(=O)O
REMARK SMILES IDX 16 1 12 2 13 3 14 4 15 5 17 6 18 7 19 8 25 9 26 10 27 11
REMARK SMILES IDX 28 13 36 14 37 15 38 16 39 18 40 19 41 22 42 23 29 25 30 26
REMARK SMILES IDX 31 27 35 28 32 29 34 30 33 31 20 32 21 33 22 34 23 35 24 36
REMARK SMILES IDX 10 39 9 40 11 41 8 43 43 44 45 45 44 46 46 48 51 49 52 50
REMARK SMILES IDX 53 51 47 53 48 54 49 55 50 56 7 59 6 60 5 61 4 62 2 63 3 64
REMARK SMILES IDX 1 68
REMARK H PARENT 25 12 36 17 40 20 40 21 42 24 24 37 24 38 9 42 45 47 53 52
REMARK H PARENT 49 57 49 58 4 65 3 66 3 67 1 69
ROOT
ATOM      1  N   PRO A   4      20.657   9.874  -7.792  1.00  0.00    -0.329 N 
ATOM      2  CA  PRO A   4      20.620  10.824  -8.899  1.00  0.00     0.174 C 
ATOM      3  CB  PRO A   4      21.671  10.325  -9.891  1.00  0.00     0.037 C 
ATOM      4  CG  PRO A   4      21.881   8.852  -9.558  1.00  0.00     0.024 C 
ATOM      5  CD  PRO A   4      21.455   8.697  -8.104  1.00  0.00     0.120 C 
ENDROOT
BRANCH   1   6
ATOM      6  C   LYS A   3      20.064  10.064  -6.502  1.00  0.00     0.245 C 
ATOM      7  O   LYS A   3      20.158   9.146  -5.641  1.00  0.00    -0.272 OA
BRANCH   6   8
ATOM      8  CA  LYS A   3      19.347  11.345  -6.156  1.00  0.00     0.171 C 
BRANCH   8   9
ATOM      9  N   LYS A   3      18.094  11.033  -5.515  1.00  0.00    -0.343 N 
ATOM     10  C   PHE A   2      16.891  11.745  -5.776  1.00  0.00     0.243 C 
ATOM     11  O   PHE A   2      16.907  12.790  -6.484  1.00  0.00    -0.273 OA
ATOM     12  H   UNL     1      18.171  10.480  -4.637  1.00  0.00     0.164 HD
BRANCH  10  13
ATOM     13  CA  PHE A   2      15.654  11.312  -5.061  1.00  0.00     0.175 C 
BRANCH  13  14
ATOM     14  N   PHE A   2      14.456  11.740  -5.771  1.00  0.00    -0.343 N 
ATOM     15  C   SER A   1      13.916  13.050  -5.636  1.00  0.00     0.239 C 
ATOM     16  O   SER A   1      14.450  13.869  -4.839  1.00  0.00    -0.273 OA
ATOM     17  H   UNL     1      13.867  11.001  -6.213  1.00  0.00     0.164 HD
BRANCH  15  18
ATOM     18  CA  SER A   1      12.655  13.409  -6.382  1.00  0.00     0.167 C 
BRANCH  18  19
ATOM     19  N   SER A   1      12.467  14.861  -6.380  1.00  0.00    -0.318 NA
ATOM     20  H   UNL     1      12.300  15.172  -5.395  1.00  0.00     0.119 HD
ATOM     21  H   UNL     1      11.582  15.087  -6.891  1.00  0.00     0.119 HD
ENDBRANCH  18  19
BRANCH  18  22
ATOM     22  CB  SER A   1      12.695  12.895  -7.840  1.00  0.00     0.184 C 
BRANCH  22  23
ATOM     23  OG  SER A   1      11.441  13.037  -8.449  1.00  0.00    -0.394 OA
ATOM     24  H   UNL     1      10.858  12.329  -8.069  1.00  0.00     0.210 HD
ENDBRANCH  22  23
ENDBRANCH  18  22
ENDBRANCH  15  18
ENDBRANCH  13  14
BRANCH  13  25
ATOM     25  CB  PHE A   2      15.613   9.773  -4.890  1.00  0.00     0.070 C 
BRANCH  25  26
ATOM     26  CG  PHE A   2      14.443   9.290  -4.091  1.00  0.00    -0.045 A 
ATOM     27  CD1 PHE A   2      13.903  10.047  -3.034  1.00  0.00     0.004 A 
ATOM     28  CD2 PHE A   2      13.968   7.990  -4.310  1.00  0.00     0.004 A 
ATOM     29  CE1 PHE A   2      12.869   9.537  -2.260  1.00  0.00     0.000 A 
ATOM     30  CE2 PHE A   2      12.939   7.477  -3.520  1.00  0.00     0.000 A 
ATOM     31  CZ  PHE A   2      12.386   8.253  -2.501  1.00  0.00     0.000 A 
ENDBRANCH  25  26
ENDBRANCH  13  25
ENDBRANCH  10  13
ENDBRANCH   8   9
BRANCH   8  32
ATOM     32  CB  LYS A   3      20.193  12.241  -5.243  1.00  0.00     0.035 C 
BRANCH  32  33
ATOM     33  CG  LYS A   3      20.420  11.689  -3.817  1.00  0.00     0.004 C 
BRANCH  33  34
ATOM     34  CD  LYS A   3      21.807  12.087  -3.302  1.00  0.00     0.015 C 
BRANCH  34  35
ATOM     35  CE  LYS A   3      22.012  11.737  -1.818  1.00  0.00     0.077 C 
BRANCH  35  36
ATOM     36  NZ  LYS A   3      22.069  10.294  -1.583  1.00  0.00    -0.330 NA
ATOM     37  H   UNL     1      21.118   9.884  -1.726  1.00  0.00     0.118 HD
ATOM     38  H   UNL     1      22.722   9.854  -2.272  1.00  0.00     0.118 HD
ENDBRANCH  35  36
ENDBRANCH  34  35
ENDBRANCH  33  34
ENDBRANCH  32  33
ENDBRANCH   8  32
ENDBRANCH   6   8
ENDBRANCH   1   6
BRANCH   2  39
ATOM     39  C   PRO A   4      19.249  10.837  -9.527  1.00  0.00     0.243 C 
ATOM     40  N   ARG A   5      18.613  12.085  -9.837  1.00  0.00    -0.343 N 
ATOM     41  O   PRO A   4      18.672   9.747  -9.793  1.00  0.00    -0.273 OA
ATOM     42  H   UNL     1      19.121  12.972  -9.617  1.00  0.00     0.164 HD
BRANCH  40  43
ATOM     43  CA  ARG A   5      17.282  12.148 -10.448  1.00  0.00     0.171 C 
BRANCH  43  44
ATOM     44  C   ARG A   5      17.353  11.662 -11.872  1.00  0.00     0.243 C 
ATOM     45  N   ASN A   6      18.367  12.157 -12.761  1.00  0.00    -0.341 N 
ATOM     46  O   ARG A   5      16.503  10.826 -12.283  1.00  0.00    -0.273 OA
ATOM     47  H   UNL     1      19.031  12.881 -12.404  1.00  0.00     0.164 HD
BRANCH  45  48
ATOM     48  CA  ASN A   6      18.510  11.659 -14.132  1.00  0.00     0.201 C 
BRANCH  48  49
ATOM     49  C   ASN A   6      19.014  10.243 -14.101  1.00  0.00     0.326 C 
ATOM     50  O   ASN A   6      18.443   9.355 -14.789  1.00  0.00    -0.250 OA
BRANCH  49  51
ATOM     51  OXT ASN A   6      20.126   9.916 -13.332  1.00  0.00    -0.480 OA
ATOM     52  H   UNL     1      20.480   8.967 -13.304  1.00  0.00     0.296 HD
ENDBRANCH  49  51
ENDBRANCH  48  49
BRANCH  48  53
ATOM     53  CB  ASN A   6      19.471  12.561 -14.928  1.00  0.00     0.136 C 
BRANCH  53  54
ATOM     54  CG  ASN A   6      19.508  12.185 -16.382  1.00  0.00     0.220 C 
ATOM     55  ND2 ASN A   6      20.506  11.290 -16.873  1.00  0.00    -0.370 N 
ATOM     56  OD1 ASN A   6      18.631  12.635 -17.167  1.00  0.00    -0.275 OA
ATOM     57  H   UNL     1      21.227  10.891 -16.232  1.00  0.00     0.159 HD
ATOM     58  H   UNL     1      20.520  11.020 -17.882  1.00  0.00     0.159 HD
ENDBRANCH  53  54
ENDBRANCH  48  53
ENDBRANCH  45  48
ENDBRANCH  43  44
BRANCH  43  59
ATOM     59  CB  ARG A   5      16.732  13.586 -10.379  1.00  0.00     0.037 C 
BRANCH  59  60
ATOM     60  CG  ARG A   5      15.287  13.683 -10.893  1.00  0.00     0.024 C 
BRANCH  60  61
ATOM     61  CD  ARG A   5      14.712  15.083 -10.655  1.00  0.00     0.116 C 
BRANCH  61  62
ATOM     62  NE  ARG A   5      13.311  15.139 -11.073  1.00  0.00    -0.357 N 
ATOM     63  CZ  ARG A   5      12.905  15.201 -12.448  1.00  0.00     0.185 C 
ATOM     64  NH2 ARG A   5      11.512  15.224 -12.772  1.00  0.00    -0.370 N 
ATOM     65  H   UNL     1      12.576  15.188 -10.331  1.00  0.00     0.163 HD
ATOM     66  H   UNL     1      10.793  15.189 -12.016  1.00  0.00     0.159 HD
ATOM     67  H   UNL     1      11.193  15.276 -13.765  1.00  0.00     0.159 HD
BRANCH  63  68
ATOM     68  NH1 ARG A   5      13.792  15.247 -13.392  1.00  0.00    -0.270 NA
ATOM     69  H   UNL     1      13.520  15.297 -14.399  1.00  0.00     0.191 HD
ENDBRANCH  63  68
ENDBRANCH  61  62
ENDBRANCH  60  61
ENDBRANCH  59  60
ENDBRANCH  43  59
ENDBRANCH  40  43
ENDBRANCH   2  39
TORSDOF 29
