REMARK SMILES CC(C)C[C@H](NC(=O)CNC(=O)[C@H](CC(C)C)NC(=O)[C@@H](N)CO)C(=O)N[C@@H](CCCNC(=N)N)C(=O)N[C@@H](CC(N)=O)C(=O)O
REMARK SMILES IDX 7 1 8 2 6 3 9 5 10 6 11 7 12 8 13 10 18 11 19 12 20 13 21 15
REMARK SMILES IDX 22 16 23 19 24 20 14 22 15 23 16 24 17 25 5 26 25 27 27 28
REMARK SMILES IDX 26 29 28 31 36 32 38 33 37 34 39 36 44 37 45 38 46 39 40 41
REMARK SMILES IDX 41 42 42 43 43 44 29 47 30 48 31 49 32 50 33 51 35 52 34 56
REMARK SMILES IDX 4 58 2 59 1 60 3 61
REMARK H PARENT 6 4 10 9 18 14 22 17 22 18 24 21 27 30 38 35 46 40 42 45 42 46
REMARK H PARENT 32 53 35 54 35 55 34 57
ROOT
ATOM      1  C   GLY A   3       1.615  -1.040   0.968  1.00  0.00     0.240 C 
ATOM      2  O   GLY A   3       1.477  -0.693  -0.239  1.00  0.00    -0.273 OA
ATOM      3  N   LEU A   4       0.504  -1.585   1.695  1.00  0.00    -0.343 N 
ATOM      4  H   UNL     1       0.658  -1.856   2.693  1.00  0.00     0.164 HD
ENDROOT
BRANCH   1   5
ATOM      5  CA  GLY A   3       2.928  -0.831   1.666  1.00  0.00     0.216 C 
BRANCH   5   6
ATOM      6  N   GLY A   3       4.020  -0.730   0.698  1.00  0.00    -0.345 N 
ATOM      7  C   LEU A   2       4.536   0.528   0.237  1.00  0.00     0.243 C 
ATOM      8  O   LEU A   2       4.048   1.610   0.664  1.00  0.00    -0.273 OA
ATOM      9  H   UNL     1       4.373  -1.612   0.266  1.00  0.00     0.164 HD
BRANCH   7  10
ATOM     10  CA  LEU A   2       5.640   0.573  -0.786  1.00  0.00     0.171 C 
BRANCH  10  11
ATOM     11  N   LEU A   2       6.732  -0.308  -0.362  1.00  0.00    -0.343 N 
ATOM     12  C   SER A   1       7.716   0.099   0.601  1.00  0.00     0.239 C 
ATOM     13  O   SER A   1       7.648   1.241   1.131  1.00  0.00    -0.273 OA
ATOM     14  H   UNL     1       6.744  -1.301  -0.689  1.00  0.00     0.164 HD
BRANCH  12  15
ATOM     15  CA  SER A   1       8.798  -0.864   1.025  1.00  0.00     0.167 C 
BRANCH  15  16
ATOM     16  N   SER A   1      10.096  -0.193   1.134  1.00  0.00    -0.318 NA
ATOM     17  H   UNL     1      10.037   0.572   1.845  1.00  0.00     0.119 HD
ATOM     18  H   UNL     1      10.324   0.251   0.213  1.00  0.00     0.119 HD
ENDBRANCH  15  16
BRANCH  15  19
ATOM     19  CB  SER A   1       8.424  -1.525   2.359  1.00  0.00     0.184 C 
BRANCH  19  20
ATOM     20  OG  SER A   1       9.411  -2.444   2.748  1.00  0.00    -0.394 OA
ATOM     21  H   UNL     1       9.289  -3.252   2.181  1.00  0.00     0.210 HD
ENDBRANCH  19  20
ENDBRANCH  15  19
ENDBRANCH  12  15
ENDBRANCH  10  11
BRANCH  10  22
ATOM     22  CB  LEU A   2       5.096   0.154  -2.174  1.00  0.00     0.038 C 
BRANCH  22  23
ATOM     23  CG  LEU A   2       5.960   0.585  -3.387  1.00  0.00    -0.015 C 
ATOM     24  CD1 LEU A   2       5.938   2.104  -3.611  1.00  0.00     0.007 C 
ATOM     25  CD2 LEU A   2       7.401   0.065  -3.318  1.00  0.00     0.007 C 
ENDBRANCH  22  23
ENDBRANCH  10  22
ENDBRANCH   7  10
ENDBRANCH   5   6
ENDBRANCH   1   5
BRANCH   3  26
ATOM     26  CA  LEU A   4      -0.793  -1.848   1.060  1.00  0.00     0.171 C 
BRANCH  26  27
ATOM     27  C   LEU A   4      -1.473  -0.561   0.664  1.00  0.00     0.243 C 
ATOM     28  N   ARG A   5      -2.356  -0.542  -0.468  1.00  0.00    -0.343 N 
ATOM     29  O   LEU A   4      -1.287   0.486   1.346  1.00  0.00    -0.273 OA
ATOM     30  H   UNL     1      -2.526  -1.440  -0.979  1.00  0.00     0.164 HD
BRANCH  28  31
ATOM     31  CA  ARG A   5      -3.190   0.617  -0.793  1.00  0.00     0.171 C 
BRANCH  31  32
ATOM     32  C   ARG A   5      -4.489   0.513  -0.036  1.00  0.00     0.243 C 
ATOM     33  N   ASN A   6      -5.310  -0.659  -0.152  1.00  0.00    -0.341 N 
ATOM     34  O   ARG A   5      -4.835   1.459   0.719  1.00  0.00    -0.273 OA
ATOM     35  H   UNL     1      -5.034  -1.394  -0.841  1.00  0.00     0.164 HD
BRANCH  33  36
ATOM     36  CA  ASN A   6      -6.582  -0.818   0.563  1.00  0.00     0.201 C 
BRANCH  36  37
ATOM     37  C   ASN A   6      -6.652  -2.186   1.181  1.00  0.00     0.326 C 
ATOM     38  O   ASN A   6      -6.450  -3.214   0.480  1.00  0.00    -0.250 OA
BRANCH  37  39
ATOM     39  OXT ASN A   6      -6.974  -2.319   2.528  1.00  0.00    -0.480 OA
ATOM     40  H   UNL     1      -7.049  -3.234   2.955  1.00  0.00     0.296 HD
ENDBRANCH  37  39
ENDBRANCH  36  37
BRANCH  36  41
ATOM     41  CB  ASN A   6      -7.767  -0.609  -0.395  1.00  0.00     0.136 C 
BRANCH  41  42
ATOM     42  CG  ASN A   6      -7.792   0.786  -0.954  1.00  0.00     0.220 C 
ATOM     43  ND2 ASN A   6      -7.829   1.002  -2.365  1.00  0.00    -0.370 N 
ATOM     44  OD1 ASN A   6      -7.798   1.775  -0.173  1.00  0.00    -0.275 OA
ATOM     45  H   UNL     1      -7.864   0.199  -3.033  1.00  0.00     0.159 HD
ATOM     46  H   UNL     1      -7.870   1.974  -2.742  1.00  0.00     0.159 HD
ENDBRANCH  41  42
ENDBRANCH  36  41
ENDBRANCH  33  36
ENDBRANCH  31  32
BRANCH  31  47
ATOM     47  CB  ARG A   5      -3.412   0.694  -2.318  1.00  0.00     0.037 C 
BRANCH  47  48
ATOM     48  CG  ARG A   5      -4.277   1.885  -2.782  1.00  0.00     0.024 C 
BRANCH  48  49
ATOM     49  CD  ARG A   5      -3.568   3.249  -2.693  1.00  0.00     0.116 C 
BRANCH  49  50
ATOM     50  NE  ARG A   5      -3.626   3.802  -1.339  1.00  0.00    -0.357 N 
ATOM     51  CZ  ARG A   5      -4.821   4.286  -0.698  1.00  0.00     0.185 C 
ATOM     52  NH2 ARG A   5      -4.774   4.644   0.683  1.00  0.00    -0.370 N 
ATOM     53  H   UNL     1      -2.726   3.877  -0.811  1.00  0.00     0.163 HD
ATOM     54  H   UNL     1      -5.632   4.981   1.172  1.00  0.00     0.159 HD
ATOM     55  H   UNL     1      -3.889   4.547   1.227  1.00  0.00     0.159 HD
BRANCH  51  56
ATOM     56  NH1 ARG A   5      -5.940   4.413  -1.343  1.00  0.00    -0.270 NA
ATOM     57  H   UNL     1      -6.054   4.186  -2.354  1.00  0.00     0.191 HD
ENDBRANCH  51  56
ENDBRANCH  49  50
ENDBRANCH  48  49
ENDBRANCH  47  48
ENDBRANCH  31  47
ENDBRANCH  28  31
ENDBRANCH  26  27
BRANCH  26  58
ATOM     58  CB  LEU A   4      -1.698  -2.711   1.970  1.00  0.00     0.038 C 
BRANCH  58  59
ATOM     59  CG  LEU A   4      -2.122  -2.013   3.297  1.00  0.00    -0.015 C 
ATOM     60  CD1 LEU A   4      -1.956  -2.960   4.493  1.00  0.00     0.007 C 
ATOM     61  CD2 LEU A   4      -3.572  -1.517   3.229  1.00  0.00     0.007 C 
ENDBRANCH  58  59
ENDBRANCH  26  58
ENDBRANCH   3  26
TORSDOF 26
