REMARK SMILES CC(C)C[C@H](NC(=O)CNC(=O)[C@@H](N)CO)C(=O)N1CCC[C@H]1C(=O)N[C@@H](CCCNC(=N)N)C(=O)N[C@@H](CC(N)=O)C(=O)O
REMARK SMILES IDX 19 1 23 2 22 3 21 4 20 5 17 6 18 7 5 8 6 9 7 10 8 11 9 13
REMARK SMILES IDX 10 14 11 15 12 16 13 18 14 19 15 22 16 23 4 25 2 26 1 27
REMARK SMILES IDX 3 28 24 29 26 30 25 31 27 33 35 34 37 35 36 36 38 38 43 39
REMARK SMILES IDX 44 40 45 41 39 43 40 44 41 45 42 46 28 49 29 50 30 51 31 52
REMARK SMILES IDX 32 53 34 54 33 58
REMARK H PARENT 6 12 10 17 14 20 14 21 16 24 26 32 37 37 45 42 41 47 41 48
REMARK H PARENT 31 55 34 56 34 57 33 59
ROOT
ATOM      1  N   PRO A   4      21.250   7.393  -7.784  1.00  0.00    -0.329 N 
ATOM      2  CA  PRO A   4      21.291   8.806  -8.137  1.00  0.00     0.174 C 
ATOM      3  CB  PRO A   4      20.805   9.554  -6.894  1.00  0.00     0.037 C 
ATOM      4  CG  PRO A   4      20.920   8.563  -5.740  1.00  0.00     0.024 C 
ATOM      5  CD  PRO A   4      20.939   7.179  -6.377  1.00  0.00     0.120 C 
ENDROOT
BRANCH   1   6
ATOM      6  C   LEU A   3      21.538   6.340  -8.727  1.00  0.00     0.245 C 
ATOM      7  O   LEU A   3      21.681   6.632  -9.946  1.00  0.00    -0.272 OA
BRANCH   6   8
ATOM      8  CA  LEU A   3      21.725   4.910  -8.260  1.00  0.00     0.171 C 
BRANCH   8   9
ATOM      9  N   LEU A   3      20.478   4.389  -7.691  1.00  0.00    -0.343 N 
ATOM     10  C   GLY A   2      20.462   3.349  -6.703  1.00  0.00     0.240 C 
ATOM     11  O   GLY A   2      21.540   2.914  -6.215  1.00  0.00    -0.273 OA
ATOM     12  H   UNL     1      19.564   4.737  -8.061  1.00  0.00     0.164 HD
BRANCH  10  13
ATOM     13  CA  GLY A   2      19.160   2.753  -6.266  1.00  0.00     0.216 C 
BRANCH  13  14
ATOM     14  N   GLY A   2      18.553   2.010  -7.367  1.00  0.00    -0.346 N 
ATOM     15  C   SER A   1      19.106   0.781  -7.862  1.00  0.00     0.239 C 
ATOM     16  O   SER A   1      20.141   0.293  -7.331  1.00  0.00    -0.273 OA
ATOM     17  H   UNL     1      17.681   2.391  -7.798  1.00  0.00     0.164 HD
BRANCH  15  18
ATOM     18  CA  SER A   1      18.457   0.067  -9.018  1.00  0.00     0.167 C 
BRANCH  18  19
ATOM     19  N   SER A   1      19.409  -0.043 -10.126  1.00  0.00    -0.318 NA
ATOM     20  H   UNL     1      20.172  -0.712  -9.869  1.00  0.00     0.119 HD
ATOM     21  H   UNL     1      18.913  -0.441 -10.956  1.00  0.00     0.119 HD
ENDBRANCH  18  19
BRANCH  18  22
ATOM     22  CB  SER A   1      17.944  -1.319  -8.591  1.00  0.00     0.184 C 
BRANCH  22  23
ATOM     23  OG  SER A   1      16.969  -1.181  -7.593  1.00  0.00    -0.394 OA
ATOM     24  H   UNL     1      16.697  -2.102  -7.346  1.00  0.00     0.210 HD
ENDBRANCH  22  23
ENDBRANCH  18  22
ENDBRANCH  15  18
ENDBRANCH  13  14
ENDBRANCH  10  13
ENDBRANCH   8   9
BRANCH   8  25
ATOM     25  CB  LEU A   3      22.303   3.949  -9.338  1.00  0.00     0.038 C 
BRANCH  25  26
ATOM     26  CG  LEU A   3      21.267   3.205 -10.222  1.00  0.00    -0.015 C 
ATOM     27  CD1 LEU A   3      20.462   4.152 -11.121  1.00  0.00     0.007 C 
ATOM     28  CD2 LEU A   3      21.979   2.154 -11.085  1.00  0.00     0.007 C 
ENDBRANCH  25  26
ENDBRANCH   8  25
ENDBRANCH   6   8
ENDBRANCH   1   6
BRANCH   2  29
ATOM     29  C   PRO A   4      22.685   9.223  -8.517  1.00  0.00     0.243 C 
ATOM     30  N   ARG A   5      23.799   8.715  -7.787  1.00  0.00    -0.343 N 
ATOM     31  O   PRO A   4      22.860  10.041  -9.460  1.00  0.00    -0.273 OA
ATOM     32  H   UNL     1      23.643   8.007  -7.034  1.00  0.00     0.164 HD
BRANCH  30  33
ATOM     33  CA  ARG A   5      25.167   9.117  -8.072  1.00  0.00     0.171 C 
BRANCH  33  34
ATOM     34  C   ARG A   5      25.890   7.966  -8.685  1.00  0.00     0.243 C 
ATOM     35  N   ASN A   6      25.912   7.866 -10.102  1.00  0.00    -0.341 N 
ATOM     36  O   ARG A   5      26.443   7.089  -7.968  1.00  0.00    -0.273 OA
ATOM     37  H   UNL     1      25.493   8.650 -10.652  1.00  0.00     0.164 HD
BRANCH  35  38
ATOM     38  CA  ASN A   6      26.541   6.751 -10.803  1.00  0.00     0.201 C 
BRANCH  38  39
ATOM     39  C   ASN A   6      27.991   6.642 -10.415  1.00  0.00     0.326 C 
ATOM     40  O   ASN A   6      28.793   7.579 -10.676  1.00  0.00    -0.250 OA
BRANCH  39  41
ATOM     41  OXT ASN A   6      28.451   5.497  -9.771  1.00  0.00    -0.480 OA
ATOM     42  H   UNL     1      29.424   5.405  -9.507  1.00  0.00     0.296 HD
ENDBRANCH  39  41
ENDBRANCH  38  39
BRANCH  38  43
ATOM     43  CB  ASN A   6      26.423   6.945 -12.322  1.00  0.00     0.136 C 
BRANCH  43  44
ATOM     44  CG  ASN A   6      25.008   7.181 -12.772  1.00  0.00     0.220 C 
ATOM     45  ND2 ASN A   6      24.753   8.089 -13.835  1.00  0.00    -0.370 N 
ATOM     46  OD1 ASN A   6      24.050   6.562 -12.239  1.00  0.00    -0.275 OA
ATOM     47  H   UNL     1      25.533   8.597 -14.309  1.00  0.00     0.159 HD
ATOM     48  H   UNL     1      23.774   8.257 -14.156  1.00  0.00     0.159 HD
ENDBRANCH  43  44
ENDBRANCH  38  43
ENDBRANCH  35  38
ENDBRANCH  33  34
BRANCH  33  49
ATOM     49  CB  ARG A   5      25.848   9.600  -6.795  1.00  0.00     0.037 C 
BRANCH  49  50
ATOM     50  CG  ARG A   5      25.161  10.859  -6.272  1.00  0.00     0.024 C 
BRANCH  50  51
ATOM     51  CD  ARG A   5      25.840  11.388  -5.016  1.00  0.00     0.116 C 
BRANCH  51  52
ATOM     52  NE  ARG A   5      25.376  10.683  -3.823  1.00  0.00    -0.357 N 
ATOM     53  CZ  ARG A   5      25.468  11.278  -2.527  1.00  0.00     0.185 C 
ATOM     54  NH2 ARG A   5      26.106  12.540  -2.351  1.00  0.00    -0.370 N 
ATOM     55  H   UNL     1      24.898   9.758  -3.922  1.00  0.00     0.163 HD
ATOM     56  H   UNL     1      26.083  13.007  -1.417  1.00  0.00     0.159 HD
ATOM     57  H   UNL     1      26.693  12.981  -3.091  1.00  0.00     0.159 HD
BRANCH  53  58
ATOM     58  NH1 ARG A   5      24.959  10.678  -1.499  1.00  0.00    -0.270 NA
ATOM     59  H   UNL     1      24.478   9.754  -1.581  1.00  0.00     0.191 HD
ENDBRANCH  53  58
ENDBRANCH  51  52
ENDBRANCH  50  51
ENDBRANCH  49  50
ENDBRANCH  33  49
ENDBRANCH  30  33
ENDBRANCH   2  29
TORSDOF 24
