REMARK SMILES CC(C)C[C@H](NC(=O)[C@H](Cc1ccccc1)NC(=O)[C@H](C)N)C(=O)N[C@@H](CC(N)=O)C(=O)N[C@@H](CCCNC(=N)N)C(=O)N[C@@H](CC(N)=O)C(=O)O
REMARK SMILES IDX 26 1 25 2 23 3 24 4 5 6 6 7 7 8 8 9 9 11 17 12 18 13 19 14
REMARK SMILES IDX 20 16 21 17 22 18 10 21 11 22 12 23 16 24 13 25 15 26 14 27
REMARK SMILES IDX 4 28 2 29 1 30 3 31 31 32 33 33 32 34 34 36 42 37 44 38
REMARK SMILES IDX 43 39 45 41 50 42 51 43 52 44 46 46 47 47 48 48 49 49 35 52
REMARK SMILES IDX 36 53 37 54 38 55 39 56 41 57 40 61 27 63 28 64 29 65 30 66
REMARK H PARENT 25 5 6 10 17 15 22 19 22 20 33 35 44 40 52 45 48 50 48 51
REMARK H PARENT 38 58 41 59 41 60 40 62 29 67 29 68
ROOT
ATOM      1  CA  ASN A   4      21.348   8.746  -8.157  1.00  0.00     0.180 C 
ENDROOT
BRANCH   1   2
ATOM      2  N   ASN A   4      20.566   9.910  -7.786  1.00  0.00    -0.342 N 
ATOM      3  C   LEU A   3      20.054  10.081  -6.476  1.00  0.00     0.243 C 
ATOM      4  O   LEU A   3      20.167   9.157  -5.623  1.00  0.00    -0.273 OA
ATOM      5  H   UNL     1      20.402  10.651  -8.506  1.00  0.00     0.164 HD
BRANCH   3   6
ATOM      6  CA  LEU A   3      19.342  11.351  -6.146  1.00  0.00     0.171 C 
BRANCH   6   7
ATOM      7  N   LEU A   3      18.083  11.019  -5.537  1.00  0.00    -0.343 N 
ATOM      8  C   PHE A   2      16.889  11.746  -5.777  1.00  0.00     0.243 C 
ATOM      9  O   PHE A   2      16.911  12.797  -6.474  1.00  0.00    -0.273 OA
ATOM     10  H   UNL     1      18.154  10.385  -4.717  1.00  0.00     0.164 HD
BRANCH   8  11
ATOM     11  CA  PHE A   2      15.649  11.315  -5.066  1.00  0.00     0.175 C 
BRANCH  11  12
ATOM     12  N   PHE A   2      14.465  11.748  -5.793  1.00  0.00    -0.343 N 
ATOM     13  C   ALA A   1      13.906  13.048  -5.628  1.00  0.00     0.237 C 
ATOM     14  O   ALA A   1      14.438  13.860  -4.821  1.00  0.00    -0.273 OA
ATOM     15  H   UNL     1      14.002  11.062  -6.429  1.00  0.00     0.164 HD
BRANCH  13  16
ATOM     16  CA  ALA A   1      12.651  13.422  -6.377  1.00  0.00     0.138 C 
ATOM     17  CB  ALA A   1      12.685  12.892  -7.822  1.00  0.00     0.035 C 
BRANCH  16  18
ATOM     18  N   ALA A   1      12.484  14.875  -6.391  1.00  0.00    -0.320 NA
ATOM     19  H   UNL     1      11.593  15.105  -6.889  1.00  0.00     0.119 HD
ATOM     20  H   UNL     1      12.336  15.201  -5.407  1.00  0.00     0.119 HD
ENDBRANCH  16  18
ENDBRANCH  13  16
ENDBRANCH  11  12
BRANCH  11  21
ATOM     21  CB  PHE A   2      15.601   9.777  -4.891  1.00  0.00     0.070 C 
BRANCH  21  22
ATOM     22  CG  PHE A   2      14.430   9.296  -4.098  1.00  0.00    -0.045 A 
ATOM     23  CD1 PHE A   2      13.896  10.050  -3.036  1.00  0.00     0.004 A 
ATOM     24  CD2 PHE A   2      13.962   7.993  -4.312  1.00  0.00     0.004 A 
ATOM     25  CE1 PHE A   2      12.867   9.536  -2.259  1.00  0.00     0.000 A 
ATOM     26  CE2 PHE A   2      12.938   7.477  -3.519  1.00  0.00     0.000 A 
ATOM     27  CZ  PHE A   2      12.386   8.252  -2.499  1.00  0.00     0.000 A 
ENDBRANCH  21  22
ENDBRANCH  11  21
ENDBRANCH   8  11
ENDBRANCH   6   7
BRANCH   6  28
ATOM     28  CB  LEU A   3      20.165  12.251  -5.216  1.00  0.00     0.038 C 
BRANCH  28  29
ATOM     29  CG  LEU A   3      20.417  11.679  -3.791  1.00  0.00    -0.015 C 
ATOM     30  CD1 LEU A   3      21.819  12.066  -3.316  1.00  0.00     0.007 C 
ATOM     31  CD2 LEU A   3      19.369  12.170  -2.781  1.00  0.00     0.007 C 
ENDBRANCH  28  29
ENDBRANCH   6  28
ENDBRANCH   3   6
ENDBRANCH   1   2
BRANCH   1  32
ATOM     32  C   ASN A   4      22.714   9.205  -8.529  1.00  0.00     0.243 C 
ATOM     33  N   ARG A   5      23.821   8.710  -7.790  1.00  0.00    -0.343 N 
ATOM     34  O   ASN A   4      22.880  10.031  -9.468  1.00  0.00    -0.273 OA
ATOM     35  H   UNL     1      23.665   7.988  -7.050  1.00  0.00     0.164 HD
BRANCH  33  36
ATOM     36  CA  ARG A   5      25.184   9.118  -8.072  1.00  0.00     0.171 C 
BRANCH  36  37
ATOM     37  C   ARG A   5      25.902   7.968  -8.686  1.00  0.00     0.243 C 
ATOM     38  N   ASN A   6      25.915   7.865 -10.103  1.00  0.00    -0.341 N 
ATOM     39  O   ARG A   5      26.450   7.086  -7.970  1.00  0.00    -0.273 OA
ATOM     40  H   UNL     1      25.492   8.649 -10.651  1.00  0.00     0.164 HD
BRANCH  38  41
ATOM     41  CA  ASN A   6      26.543   6.751 -10.804  1.00  0.00     0.201 C 
BRANCH  41  42
ATOM     42  C   ASN A   6      27.994   6.642 -10.416  1.00  0.00     0.326 C 
ATOM     43  O   ASN A   6      28.795   7.579 -10.677  1.00  0.00    -0.250 OA
BRANCH  42  44
ATOM     44  OXT ASN A   6      28.452   5.498  -9.770  1.00  0.00    -0.480 OA
ATOM     45  H   UNL     1      29.425   5.408  -9.501  1.00  0.00     0.296 HD
ENDBRANCH  42  44
ENDBRANCH  41  42
BRANCH  41  46
ATOM     46  CB  ASN A   6      26.426   6.948 -12.324  1.00  0.00     0.136 C 
BRANCH  46  47
ATOM     47  CG  ASN A   6      25.012   7.182 -12.773  1.00  0.00     0.220 C 
ATOM     48  ND2 ASN A   6      24.755   8.090 -13.834  1.00  0.00    -0.370 N 
ATOM     49  OD1 ASN A   6      24.056   6.562 -12.240  1.00  0.00    -0.275 OA
ATOM     50  H   UNL     1      25.534   8.598 -14.309  1.00  0.00     0.159 HD
ATOM     51  H   UNL     1      23.775   8.258 -14.156  1.00  0.00     0.159 HD
ENDBRANCH  46  47
ENDBRANCH  41  46
ENDBRANCH  38  41
ENDBRANCH  36  37
BRANCH  36  52
ATOM     52  CB  ARG A   5      25.858   9.601  -6.793  1.00  0.00     0.037 C 
BRANCH  52  53
ATOM     53  CG  ARG A   5      25.164  10.859  -6.272  1.00  0.00     0.024 C 
BRANCH  53  54
ATOM     54  CD  ARG A   5      25.838  11.391  -5.015  1.00  0.00     0.116 C 
BRANCH  54  55
ATOM     55  NE  ARG A   5      25.377  10.684  -3.823  1.00  0.00    -0.357 N 
ATOM     56  CZ  ARG A   5      25.468  11.279  -2.527  1.00  0.00     0.185 C 
ATOM     57  NH2 ARG A   5      26.105  12.541  -2.350  1.00  0.00    -0.370 N 
ATOM     58  H   UNL     1      24.898   9.759  -3.921  1.00  0.00     0.163 HD
ATOM     59  H   UNL     1      26.691  12.983  -3.091  1.00  0.00     0.159 HD
ATOM     60  H   UNL     1      26.081  13.007  -1.416  1.00  0.00     0.159 HD
BRANCH  56  61
ATOM     61  NH1 ARG A   5      24.956  10.679  -1.500  1.00  0.00    -0.270 NA
ATOM     62  H   UNL     1      24.474   9.757  -1.584  1.00  0.00     0.191 HD
ENDBRANCH  56  61
ENDBRANCH  54  55
ENDBRANCH  53  54
ENDBRANCH  52  53
ENDBRANCH  36  52
ENDBRANCH  33  36
ENDBRANCH   1  32
BRANCH   1  63
ATOM     63  CB  ASN A   4      20.662   8.000  -9.304  1.00  0.00     0.134 C 
BRANCH  63  64
ATOM     64  CG  ASN A   4      21.415   6.775  -9.755  1.00  0.00     0.220 C 
ATOM     65  ND2 ASN A   4      21.253   6.293 -11.089  1.00  0.00    -0.370 N 
ATOM     66  OD1 ASN A   4      22.121   6.119  -8.942  1.00  0.00    -0.275 OA
ATOM     67  H   UNL     1      20.656   6.808 -11.773  1.00  0.00     0.159 HD
ATOM     68  H   UNL     1      21.714   5.405 -11.388  1.00  0.00     0.159 HD
ENDBRANCH  63  64
ENDBRANCH   1  63
TORSDOF 26
