REMARK SMILES CC(C)C[C@H](NC(=O)[C@H](Cc1ccc(O)cc1)NC(=O)[C@@H](N)CO)C(=O)NCC(=O)N[C@@H](CCCNC(=N)N)C(=O)N[C@@H](CC(N)=O)C(=O)O
REMARK SMILES IDX 25 1 26 2 27 3 5 5 6 6 7 7 8 8 9 10 18 11 19 12 20 13 21 15
REMARK SMILES IDX 22 16 23 19 24 20 10 22 11 23 12 24 17 25 13 26 16 27 14 28
REMARK SMILES IDX 15 29 4 31 2 32 1 33 3 34 28 35 29 36 31 37 30 38 32 40
REMARK SMILES IDX 40 41 42 42 41 43 43 45 48 46 49 47 50 48 44 50 45 51 46 52
REMARK SMILES IDX 47 53 33 56 34 57 35 58 36 59 37 60 39 61 38 65
REMARK H PARENT 27 4 6 9 18 14 22 17 22 18 24 21 15 30 31 39 42 44 50 49 46 54
REMARK H PARENT 46 55 36 62 39 63 39 64 38 66
ROOT
ATOM      1  C   LEU A   3      20.060  10.079  -6.484  1.00  0.00     0.243 C 
ATOM      2  O   LEU A   3      20.180   9.153  -5.634  1.00  0.00    -0.273 OA
ATOM      3  N   GLY A   4      20.561   9.914  -7.799  1.00  0.00    -0.345 N 
ATOM      4  H   UNL     1      20.396  10.662  -8.511  1.00  0.00     0.164 HD
ENDROOT
BRANCH   1   5
ATOM      5  CA  LEU A   3      19.344  11.349  -6.148  1.00  0.00     0.171 C 
BRANCH   5   6
ATOM      6  N   LEU A   3      18.085  11.016  -5.540  1.00  0.00    -0.343 N 
ATOM      7  C   TYR A   2      16.889  11.744  -5.775  1.00  0.00     0.243 C 
ATOM      8  O   TYR A   2      16.908  12.795  -6.473  1.00  0.00    -0.273 OA
ATOM      9  H   UNL     1      18.158  10.378  -4.724  1.00  0.00     0.164 HD
BRANCH   7  10
ATOM     10  CA  TYR A   2      15.653  11.313  -5.056  1.00  0.00     0.175 C 
BRANCH  10  11
ATOM     11  N   TYR A   2      14.457  11.739  -5.768  1.00  0.00    -0.343 N 
ATOM     12  C   SER A   1      13.915  13.049  -5.637  1.00  0.00     0.239 C 
ATOM     13  O   SER A   1      14.442  13.869  -4.836  1.00  0.00    -0.273 OA
ATOM     14  H   UNL     1      13.874  10.998  -6.214  1.00  0.00     0.164 HD
BRANCH  12  15
ATOM     15  CA  SER A   1      12.662  13.408  -6.393  1.00  0.00     0.167 C 
BRANCH  15  16
ATOM     16  N   SER A   1      12.472  14.860  -6.379  1.00  0.00    -0.318 NA
ATOM     17  H   UNL     1      13.201  15.316  -6.976  1.00  0.00     0.119 HD
ATOM     18  H   UNL     1      11.538  15.086  -6.794  1.00  0.00     0.119 HD
ENDBRANCH  15  16
BRANCH  15  19
ATOM     19  CB  SER A   1      12.691  12.878  -7.846  1.00  0.00     0.184 C 
BRANCH  19  20
ATOM     20  OG  SER A   1      11.437  13.052  -8.442  1.00  0.00    -0.394 OA
ATOM     21  H   UNL     1      11.538  12.777  -9.391  1.00  0.00     0.210 HD
ENDBRANCH  19  20
ENDBRANCH  15  19
ENDBRANCH  12  15
ENDBRANCH  10  11
BRANCH  10  22
ATOM     22  CB  TYR A   2      15.611   9.774  -4.878  1.00  0.00     0.070 C 
BRANCH  22  23
ATOM     23  CG  TYR A   2      14.435   9.293  -4.091  1.00  0.00    -0.045 A 
ATOM     24  CD1 TYR A   2      13.898  10.048  -3.033  1.00  0.00     0.007 A 
ATOM     25  CD2 TYR A   2      13.964   7.992  -4.310  1.00  0.00     0.007 A 
ATOM     26  CE1 TYR A   2      12.866   9.537  -2.259  1.00  0.00     0.046 A 
ATOM     27  CE2 TYR A   2      12.937   7.477  -3.521  1.00  0.00     0.046 A 
ATOM     28  CZ  TYR A   2      12.382   8.249  -2.499  1.00  0.00     0.115 A 
BRANCH  28  29
ATOM     29  OH  TYR A   2      11.352   7.722  -1.723  1.00  0.00    -0.508 OA
ATOM     30  H   UNL     1      10.928   8.255  -0.972  1.00  0.00     0.293 HD
ENDBRANCH  28  29
ENDBRANCH  22  23
ENDBRANCH  10  22
ENDBRANCH   7  10
ENDBRANCH   5   6
BRANCH   5  31
ATOM     31  CB  LEU A   3      20.165  12.249  -5.216  1.00  0.00     0.038 C 
BRANCH  31  32
ATOM     32  CG  LEU A   3      20.417  11.677  -3.792  1.00  0.00    -0.015 C 
ATOM     33  CD1 LEU A   3      21.819  12.065  -3.316  1.00  0.00     0.007 C 
ATOM     34  CD2 LEU A   3      19.368  12.167  -2.782  1.00  0.00     0.007 C 
ENDBRANCH  31  32
ENDBRANCH   5  31
ENDBRANCH   1   5
BRANCH   3  35
ATOM     35  CA  GLY A   4      21.333   8.757  -8.203  1.00  0.00     0.216 C 
BRANCH  35  36
ATOM     36  C   GLY A   4      22.707   9.205  -8.540  1.00  0.00     0.240 C 
ATOM     37  N   ARG A   5      23.807   8.709  -7.788  1.00  0.00    -0.343 N 
ATOM     38  O   GLY A   4      22.885  10.031  -9.475  1.00  0.00    -0.273 OA
ATOM     39  H   UNL     1      23.640   7.993  -7.045  1.00  0.00     0.164 HD
BRANCH  37  40
ATOM     40  CA  ARG A   5      25.175   9.114  -8.068  1.00  0.00     0.171 C 
BRANCH  40  41
ATOM     41  C   ARG A   5      25.896   7.965  -8.683  1.00  0.00     0.243 C 
ATOM     42  N   ASN A   6      25.915   7.866 -10.101  1.00  0.00    -0.341 N 
ATOM     43  O   ARG A   5      26.447   7.085  -7.969  1.00  0.00    -0.273 OA
ATOM     44  H   UNL     1      25.495   8.652 -10.649  1.00  0.00     0.164 HD
BRANCH  42  45
ATOM     45  CA  ASN A   6      26.543   6.752 -10.803  1.00  0.00     0.201 C 
BRANCH  45  46
ATOM     46  C   ASN A   6      27.993   6.642 -10.416  1.00  0.00     0.326 C 
ATOM     47  O   ASN A   6      28.795   7.579 -10.677  1.00  0.00    -0.250 OA
BRANCH  46  48
ATOM     48  OXT ASN A   6      28.452   5.499  -9.769  1.00  0.00    -0.480 OA
ATOM     49  H   UNL     1      29.425   5.409  -9.501  1.00  0.00     0.296 HD
ENDBRANCH  46  48
ENDBRANCH  45  46
BRANCH  45  50
ATOM     50  CB  ASN A   6      26.424   6.947 -12.323  1.00  0.00     0.136 C 
BRANCH  50  51
ATOM     51  CG  ASN A   6      25.010   7.182 -12.772  1.00  0.00     0.220 C 
ATOM     52  ND2 ASN A   6      24.754   8.089 -13.834  1.00  0.00    -0.370 N 
ATOM     53  OD1 ASN A   6      24.051   6.563 -12.238  1.00  0.00    -0.275 OA
ATOM     54  H   UNL     1      25.534   8.596 -14.309  1.00  0.00     0.159 HD
ATOM     55  H   UNL     1      23.775   8.257 -14.157  1.00  0.00     0.159 HD
ENDBRANCH  50  51
ENDBRANCH  45  50
ENDBRANCH  42  45
ENDBRANCH  40  41
BRANCH  40  56
ATOM     56  CB  ARG A   5      25.851   9.597  -6.790  1.00  0.00     0.037 C 
BRANCH  56  57
ATOM     57  CG  ARG A   5      25.162  10.858  -6.269  1.00  0.00     0.024 C 
BRANCH  57  58
ATOM     58  CD  ARG A   5      25.838  11.390  -5.014  1.00  0.00     0.116 C 
BRANCH  58  59
ATOM     59  NE  ARG A   5      25.377  10.686  -3.820  1.00  0.00    -0.357 N 
ATOM     60  CZ  ARG A   5      25.469  11.281  -2.526  1.00  0.00     0.185 C 
ATOM     61  NH2 ARG A   5      26.107  12.546  -2.352  1.00  0.00    -0.370 N 
ATOM     62  H   UNL     1      24.893   9.763  -3.911  1.00  0.00     0.163 HD
ATOM     63  H   UNL     1      26.080  13.024  -1.424  1.00  0.00     0.159 HD
ATOM     64  H   UNL     1      26.697  12.982  -3.094  1.00  0.00     0.159 HD
BRANCH  60  65
ATOM     65  NH1 ARG A   5      24.955  10.672  -1.506  1.00  0.00    -0.270 NA
ATOM     66  H   UNL     1      24.996  11.077  -0.545  1.00  0.00     0.191 HD
ENDBRANCH  60  65
ENDBRANCH  58  59
ENDBRANCH  57  58
ENDBRANCH  56  57
ENDBRANCH  40  56
ENDBRANCH  37  40
ENDBRANCH  35  36
ENDBRANCH   3  35
TORSDOF 27
