REMARK SMILES CC(C)C[C@H](NC(=O)CNC(=O)[C@@H](N)CO)C(=O)N[C@H](C(=O)N[C@@H](CCCNC(=N)N)C(=O)N[C@@H](CC(N)=O)C(=O)O)C(C)C
REMARK SMILES IDX 17 1 18 2 19 3 5 5 6 6 7 7 8 8 9 10 10 11 11 12 12 13 13 15
REMARK SMILES IDX 14 16 15 19 16 20 4 22 2 23 1 24 3 25 20 26 21 27 23 28
REMARK SMILES IDX 22 29 24 31 32 32 34 33 33 34 35 36 40 37 41 38 42 39 36 41
REMARK SMILES IDX 37 42 38 43 39 44 25 47 26 48 27 49 28 50 29 51 31 52 30 56
REMARK SMILES IDX 43 58 44 59 45 60
REMARK H PARENT 19 4 6 9 10 14 14 17 14 18 16 21 23 30 34 35 42 40 38 45 38 46
REMARK H PARENT 28 53 31 54 31 55 30 57
ROOT
ATOM      1  C   LEU A   3      20.040  10.068  -6.468  1.00  0.00     0.243 C 
ATOM      2  O   LEU A   3      20.162   9.140  -5.624  1.00  0.00    -0.273 OA
ATOM      3  N   VAL A   4      20.576   9.929  -7.773  1.00  0.00    -0.342 N 
ATOM      4  H   UNL     1      20.488  10.727  -8.443  1.00  0.00     0.164 HD
ENDROOT
BRANCH   1   5
ATOM      5  CA  LEU A   3      19.307  11.323  -6.128  1.00  0.00     0.171 C 
BRANCH   5   6
ATOM      6  N   LEU A   3      18.032  10.979  -5.534  1.00  0.00    -0.343 N 
ATOM      7  C   GLY A   2      16.866  11.758  -5.738  1.00  0.00     0.240 C 
ATOM      8  O   GLY A   2      16.903  12.806  -6.440  1.00  0.00    -0.273 OA
ATOM      9  H   UNL     1      17.987  10.189  -4.850  1.00  0.00     0.164 HD
BRANCH   7  10
ATOM     10  CA  GLY A   2      15.629  11.332  -5.022  1.00  0.00     0.216 C 
BRANCH  10  11
ATOM     11  N   GLY A   2      14.437  11.726  -5.742  1.00  0.00    -0.346 N 
ATOM     12  C   SER A   1      13.905  13.043  -5.633  1.00  0.00     0.239 C 
ATOM     13  O   SER A   1      14.444  13.871  -4.846  1.00  0.00    -0.273 OA
ATOM     14  H   UNL     1      13.853  10.959  -6.140  1.00  0.00     0.164 HD
BRANCH  12  15
ATOM     15  CA  SER A   1      12.651  13.405  -6.386  1.00  0.00     0.167 C 
BRANCH  15  16
ATOM     16  N   SER A   1      12.468  14.859  -6.390  1.00  0.00    -0.318 NA
ATOM     17  H   UNL     1      11.587  15.086  -6.905  1.00  0.00     0.119 HD
ATOM     18  H   UNL     1      12.299  15.173  -5.406  1.00  0.00     0.119 HD
ENDBRANCH  15  16
BRANCH  15  19
ATOM     19  CB  SER A   1      12.700  12.882  -7.838  1.00  0.00     0.184 C 
BRANCH  19  20
ATOM     20  OG  SER A   1      11.446  13.034  -8.443  1.00  0.00    -0.394 OA
ATOM     21  H   UNL     1      11.557  12.754  -9.388  1.00  0.00     0.210 HD
ENDBRANCH  19  20
ENDBRANCH  15  19
ENDBRANCH  12  15
ENDBRANCH  10  11
ENDBRANCH   7  10
ENDBRANCH   5   6
BRANCH   5  22
ATOM     22  CB  LEU A   3      20.132  12.236  -5.209  1.00  0.00     0.038 C 
BRANCH  22  23
ATOM     23  CG  LEU A   3      20.405  11.667  -3.790  1.00  0.00    -0.015 C 
ATOM     24  CD1 LEU A   3      21.806  12.070  -3.322  1.00  0.00     0.007 C 
ATOM     25  CD2 LEU A   3      19.354  12.144  -2.781  1.00  0.00     0.007 C 
ENDBRANCH  22  23
ENDBRANCH   5  22
ENDBRANCH   1   5
BRANCH   3  26
ATOM     26  CA  VAL A   4      21.343   8.763  -8.174  1.00  0.00     0.174 C 
BRANCH  26  27
ATOM     27  C   VAL A   4      22.717   9.212  -8.537  1.00  0.00     0.243 C 
ATOM     28  N   ARG A   5      23.818   8.709  -7.795  1.00  0.00    -0.343 N 
ATOM     29  O   VAL A   4      22.894  10.049  -9.462  1.00  0.00    -0.273 OA
ATOM     30  H   UNL     1      23.659   7.981  -7.061  1.00  0.00     0.164 HD
BRANCH  28  31
ATOM     31  CA  ARG A   5      25.184   9.116  -8.071  1.00  0.00     0.171 C 
BRANCH  31  32
ATOM     32  C   ARG A   5      25.902   7.967  -8.685  1.00  0.00     0.243 C 
ATOM     33  N   ASN A   6      25.915   7.864 -10.102  1.00  0.00    -0.341 N 
ATOM     34  O   ARG A   5      26.451   7.086  -7.970  1.00  0.00    -0.273 OA
ATOM     35  H   UNL     1      25.490   8.647 -10.650  1.00  0.00     0.164 HD
BRANCH  33  36
ATOM     36  CA  ASN A   6      26.543   6.751 -10.804  1.00  0.00     0.201 C 
BRANCH  36  37
ATOM     37  C   ASN A   6      27.993   6.642 -10.417  1.00  0.00     0.326 C 
ATOM     38  O   ASN A   6      28.795   7.579 -10.677  1.00  0.00    -0.250 OA
BRANCH  37  39
ATOM     39  OXT ASN A   6      28.453   5.498  -9.771  1.00  0.00    -0.480 OA
ATOM     40  H   UNL     1      29.425   5.408  -9.503  1.00  0.00     0.296 HD
ENDBRANCH  37  39
ENDBRANCH  36  37
BRANCH  36  41
ATOM     41  CB  ASN A   6      26.425   6.947 -12.324  1.00  0.00     0.136 C 
BRANCH  41  42
ATOM     42  CG  ASN A   6      25.011   7.181 -12.773  1.00  0.00     0.220 C 
ATOM     43  ND2 ASN A   6      24.754   8.091 -13.834  1.00  0.00    -0.370 N 
ATOM     44  OD1 ASN A   6      24.053   6.558 -12.243  1.00  0.00    -0.275 OA
ATOM     45  H   UNL     1      23.775   8.259 -14.156  1.00  0.00     0.159 HD
ATOM     46  H   UNL     1      25.533   8.601 -14.306  1.00  0.00     0.159 HD
ENDBRANCH  41  42
ENDBRANCH  36  41
ENDBRANCH  33  36
ENDBRANCH  31  32
BRANCH  31  47
ATOM     47  CB  ARG A   5      25.856   9.598  -6.791  1.00  0.00     0.037 C 
BRANCH  47  48
ATOM     48  CG  ARG A   5      25.164  10.858  -6.272  1.00  0.00     0.024 C 
BRANCH  48  49
ATOM     49  CD  ARG A   5      25.838  11.391  -5.015  1.00  0.00     0.116 C 
BRANCH  49  50
ATOM     50  NE  ARG A   5      25.377  10.684  -3.823  1.00  0.00    -0.357 N 
ATOM     51  CZ  ARG A   5      25.467  11.279  -2.527  1.00  0.00     0.185 C 
ATOM     52  NH2 ARG A   5      26.105  12.541  -2.350  1.00  0.00    -0.370 N 
ATOM     53  H   UNL     1      24.897   9.760  -3.921  1.00  0.00     0.163 HD
ATOM     54  H   UNL     1      26.082  13.007  -1.416  1.00  0.00     0.159 HD
ATOM     55  H   UNL     1      26.691  12.983  -3.092  1.00  0.00     0.159 HD
BRANCH  51  56
ATOM     56  NH1 ARG A   5      24.957  10.680  -1.500  1.00  0.00    -0.270 NA
ATOM     57  H   UNL     1      24.474   9.757  -1.584  1.00  0.00     0.191 HD
ENDBRANCH  51  56
ENDBRANCH  49  50
ENDBRANCH  48  49
ENDBRANCH  47  48
ENDBRANCH  31  47
ENDBRANCH  28  31
ENDBRANCH  26  27
BRANCH  26  58
ATOM     58  CB  VAL A   4      20.628   7.982  -9.301  1.00  0.00     0.015 C 
ATOM     59  CG1 VAL A   4      21.447   6.762  -9.743  1.00  0.00     0.010 C 
ATOM     60  CG2 VAL A   4      20.250   8.829 -10.530  1.00  0.00     0.010 C 
ENDBRANCH  26  58
ENDBRANCH   3  26
TORSDOF 25
