REMARK SMILES CC(C)C[C@H](NC(=O)[C@H](CO)NC(=O)[C@H](C)NC(=O)[C@@H](N)CO)C(=O)N[C@@H](CCCNC(=N)N)C(=O)N[C@@H](CC(N)=O)C(=O)O
REMARK SMILES IDX 7 1 8 2 6 3 9 5 12 6 13 7 14 8 15 10 16 11 17 12 18 13 19 14
REMARK SMILES IDX 20 16 21 17 22 20 23 21 10 23 11 24 5 26 24 27 26 28 25 29
REMARK SMILES IDX 27 31 35 32 37 33 36 34 38 36 43 37 44 38 45 39 39 41 40 42
REMARK SMILES IDX 41 43 42 44 28 47 29 48 30 49 31 50 32 51 34 52 33 56 4 58
REMARK SMILES IDX 2 59 1 60 3 61
REMARK H PARENT 6 4 12 9 17 15 21 18 21 19 23 22 11 25 26 30 37 35 45 40 41 45
REMARK H PARENT 41 46 31 53 34 54 34 55 33 57
ROOT
ATOM      1  C   SER A   3      20.041  10.097  -6.459  1.00  0.00     0.245 C 
ATOM      2  O   SER A   3      20.178   9.195  -5.586  1.00  0.00    -0.273 OA
ATOM      3  N   LEU A   4      20.559   9.923  -7.769  1.00  0.00    -0.342 N 
ATOM      4  H   UNL     1      20.390  10.659  -8.493  1.00  0.00     0.164 HD
ENDROOT
BRANCH   1   5
ATOM      5  CA  SER A   3      19.323  11.363  -6.136  1.00  0.00     0.197 C 
BRANCH   5   6
ATOM      6  N   SER A   3      18.070  11.029  -5.496  1.00  0.00    -0.340 N 
ATOM      7  C   ALA A   2      16.870  11.748  -5.739  1.00  0.00     0.243 C 
ATOM      8  O   ALA A   2      16.886  12.788  -6.454  1.00  0.00    -0.273 OA
ATOM      9  H   UNL     1      18.125  10.412  -4.656  1.00  0.00     0.164 HD
BRANCH   7  10
ATOM     10  CA  ALA A   2      15.617  11.294  -5.042  1.00  0.00     0.168 C 
ATOM     11  CB  ALA A   2      15.572   9.762  -4.909  1.00  0.00     0.041 C 
BRANCH  10  12
ATOM     12  N   ALA A   2      14.435  11.731  -5.766  1.00  0.00    -0.343 N 
ATOM     13  C   SER A   1      13.910  13.047  -5.638  1.00  0.00     0.239 C 
ATOM     14  O   SER A   1      14.450  13.865  -4.842  1.00  0.00    -0.273 OA
ATOM     15  H   UNL     1      13.842  10.998  -6.213  1.00  0.00     0.164 HD
BRANCH  13  16
ATOM     16  CA  SER A   1      12.653  13.412  -6.386  1.00  0.00     0.167 C 
BRANCH  16  17
ATOM     17  N   SER A   1      12.468  14.865  -6.382  1.00  0.00    -0.318 NA
ATOM     18  H   UNL     1      11.584  15.093  -6.891  1.00  0.00     0.119 HD
ATOM     19  H   UNL     1      12.304  15.175  -5.396  1.00  0.00     0.119 HD
ENDBRANCH  16  17
BRANCH  16  20
ATOM     20  CB  SER A   1      12.694  12.899  -7.846  1.00  0.00     0.184 C 
BRANCH  20  21
ATOM     21  OG  SER A   1      11.438  13.038  -8.451  1.00  0.00    -0.394 OA
ATOM     22  H   UNL     1      10.858  12.328  -8.070  1.00  0.00     0.210 HD
ENDBRANCH  20  21
ENDBRANCH  16  20
ENDBRANCH  13  16
ENDBRANCH  10  12
ENDBRANCH   7  10
ENDBRANCH   5   6
BRANCH   5  23
ATOM     23  CB  SER A   3      20.164  12.234  -5.202  1.00  0.00     0.191 C 
BRANCH  23  24
ATOM     24  OG  SER A   3      19.510  13.444  -4.928  1.00  0.00    -0.394 OA
ATOM     25  H   UNL     1      19.606  14.009  -5.738  1.00  0.00     0.210 HD
ENDBRANCH  23  24
ENDBRANCH   5  23
ENDBRANCH   1   5
BRANCH   3  26
ATOM     26  CA  LEU A   4      21.345   8.761  -8.136  1.00  0.00     0.171 C 
BRANCH  26  27
ATOM     27  C   LEU A   4      22.711   9.217  -8.518  1.00  0.00     0.243 C 
ATOM     28  N   ARG A   5      23.821   8.720  -7.785  1.00  0.00    -0.343 N 
ATOM     29  O   LEU A   4      22.875  10.033  -9.467  1.00  0.00    -0.273 OA
ATOM     30  H   UNL     1      23.666   8.030  -7.015  1.00  0.00     0.164 HD
BRANCH  28  31
ATOM     31  CA  ARG A   5      25.185   9.122  -8.073  1.00  0.00     0.171 C 
BRANCH  31  32
ATOM     32  C   ARG A   5      25.899   7.968  -8.685  1.00  0.00     0.243 C 
ATOM     33  N   ASN A   6      25.913   7.864 -10.102  1.00  0.00    -0.341 N 
ATOM     34  O   ARG A   5      26.447   7.087  -7.969  1.00  0.00    -0.273 OA
ATOM     35  H   UNL     1      25.489   8.647 -10.651  1.00  0.00     0.164 HD
BRANCH  33  36
ATOM     36  CA  ASN A   6      26.542   6.751 -10.804  1.00  0.00     0.201 C 
BRANCH  36  37
ATOM     37  C   ASN A   6      27.993   6.642 -10.416  1.00  0.00     0.326 C 
ATOM     38  O   ASN A   6      28.794   7.579 -10.677  1.00  0.00    -0.250 OA
BRANCH  37  39
ATOM     39  OXT ASN A   6      28.451   5.499  -9.768  1.00  0.00    -0.480 OA
ATOM     40  H   UNL     1      29.424   5.409  -9.499  1.00  0.00     0.296 HD
ENDBRANCH  37  39
ENDBRANCH  36  37
BRANCH  36  41
ATOM     41  CB  ASN A   6      26.424   6.947 -12.323  1.00  0.00     0.136 C 
BRANCH  41  42
ATOM     42  CG  ASN A   6      25.010   7.180 -12.773  1.00  0.00     0.220 C 
ATOM     43  ND2 ASN A   6      24.753   8.090 -13.833  1.00  0.00    -0.370 N 
ATOM     44  OD1 ASN A   6      24.053   6.558 -12.243  1.00  0.00    -0.275 OA
ATOM     45  H   UNL     1      25.533   8.600 -14.306  1.00  0.00     0.159 HD
ATOM     46  H   UNL     1      23.775   8.258 -14.156  1.00  0.00     0.159 HD
ENDBRANCH  41  42
ENDBRANCH  36  41
ENDBRANCH  33  36
ENDBRANCH  31  32
BRANCH  31  47
ATOM     47  CB  ARG A   5      25.862   9.605  -6.796  1.00  0.00     0.037 C 
BRANCH  47  48
ATOM     48  CG  ARG A   5      25.166  10.860  -6.270  1.00  0.00     0.024 C 
BRANCH  48  49
ATOM     49  CD  ARG A   5      25.842  11.390  -5.014  1.00  0.00     0.116 C 
BRANCH  49  50
ATOM     50  NE  ARG A   5      25.378  10.687  -3.820  1.00  0.00    -0.357 N 
ATOM     51  CZ  ARG A   5      25.470  11.282  -2.526  1.00  0.00     0.185 C 
ATOM     52  NH2 ARG A   5      26.109  12.546  -2.351  1.00  0.00    -0.370 N 
ATOM     53  H   UNL     1      24.899   9.762  -3.912  1.00  0.00     0.163 HD
ATOM     54  H   UNL     1      26.699  12.981  -3.092  1.00  0.00     0.159 HD
ATOM     55  H   UNL     1      26.084  13.022  -1.422  1.00  0.00     0.159 HD
BRANCH  51  56
ATOM     56  NH1 ARG A   5      24.956  10.671  -1.506  1.00  0.00    -0.270 NA
ATOM     57  H   UNL     1      24.999  11.075  -0.544  1.00  0.00     0.191 HD
ENDBRANCH  51  56
ENDBRANCH  49  50
ENDBRANCH  48  49
ENDBRANCH  47  48
ENDBRANCH  31  47
ENDBRANCH  28  31
ENDBRANCH  26  27
BRANCH  26  58
ATOM     58  CB  LEU A   4      20.654   7.999  -9.269  1.00  0.00     0.038 C 
BRANCH  58  59
ATOM     59  CG  LEU A   4      21.448   6.772  -9.767  1.00  0.00    -0.015 C 
ATOM     60  CD1 LEU A   4      21.762   5.779  -8.638  1.00  0.00     0.007 C 
ATOM     61  CD2 LEU A   4      20.662   6.068 -10.877  1.00  0.00     0.007 C 
ENDBRANCH  58  59
ENDBRANCH  26  58
ENDBRANCH   3  26
TORSDOF 26
