REMARK SMILES CC(C)C[C@H](NC(=O)CNC(=O)[C@@H](N)CO)C(=O)N[C@@H](CC(N)=O)C(=O)N[C@@H](CCCNC(=N)N)C(=O)N[C@@H](CC(N)=O)C(=O)O
REMARK SMILES IDX 17 1 18 2 19 3 5 5 6 6 7 7 8 8 9 10 10 11 11 12 12 13 13 15
REMARK SMILES IDX 14 16 15 19 16 20 4 22 2 23 1 24 3 25 20 26 25 27 27 28
REMARK SMILES IDX 26 29 28 31 36 32 38 33 37 34 39 36 44 37 45 38 46 39 40 41
REMARK SMILES IDX 41 42 42 43 43 44 29 47 30 48 31 49 32 50 33 51 35 52 34 56
REMARK SMILES IDX 21 58 22 59 23 60 24 61
REMARK H PARENT 19 4 6 9 10 14 14 17 14 18 16 21 27 30 38 35 46 40 42 45 42 46
REMARK H PARENT 32 53 35 54 35 55 34 57 23 62 23 63
ROOT
ATOM      1  C   LEU A   3      20.042  10.067  -6.469  1.00  0.00     0.243 C 
ATOM      2  O   LEU A   3      20.167   9.144  -5.618  1.00  0.00    -0.273 OA
ATOM      3  N   ASN A   4      20.565   9.909  -7.778  1.00  0.00    -0.342 N 
ATOM      4  H   UNL     1      20.402  10.655  -8.493  1.00  0.00     0.164 HD
ENDROOT
BRANCH   1   5
ATOM      5  CA  LEU A   3      19.309  11.322  -6.131  1.00  0.00     0.171 C 
BRANCH   5   6
ATOM      6  N   LEU A   3      18.033  10.979  -5.537  1.00  0.00    -0.343 N 
ATOM      7  C   GLY A   2      16.867  11.758  -5.739  1.00  0.00     0.240 C 
ATOM      8  O   GLY A   2      16.903  12.807  -6.441  1.00  0.00    -0.273 OA
ATOM      9  H   UNL     1      17.988  10.189  -4.853  1.00  0.00     0.164 HD
BRANCH   7  10
ATOM     10  CA  GLY A   2      15.630  11.332  -5.024  1.00  0.00     0.216 C 
BRANCH  10  11
ATOM     11  N   GLY A   2      14.437  11.727  -5.743  1.00  0.00    -0.346 N 
ATOM     12  C   SER A   1      13.907  13.045  -5.632  1.00  0.00     0.239 C 
ATOM     13  O   SER A   1      14.447  13.871  -4.845  1.00  0.00    -0.273 OA
ATOM     14  H   UNL     1      13.852  10.961  -6.142  1.00  0.00     0.164 HD
BRANCH  12  15
ATOM     15  CA  SER A   1      12.651  13.406  -6.382  1.00  0.00     0.167 C 
BRANCH  15  16
ATOM     16  N   SER A   1      12.468  14.860  -6.388  1.00  0.00    -0.318 NA
ATOM     17  H   UNL     1      11.585  15.085  -6.901  1.00  0.00     0.119 HD
ATOM     18  H   UNL     1      12.302  15.176  -5.404  1.00  0.00     0.119 HD
ENDBRANCH  15  16
BRANCH  15  19
ATOM     19  CB  SER A   1      12.696  12.881  -7.836  1.00  0.00     0.184 C 
BRANCH  19  20
ATOM     20  OG  SER A   1      11.446  13.031  -8.451  1.00  0.00    -0.394 OA
ATOM     21  H   UNL     1      10.854  12.331  -8.070  1.00  0.00     0.210 HD
ENDBRANCH  19  20
ENDBRANCH  15  19
ENDBRANCH  12  15
ENDBRANCH  10  11
ENDBRANCH   7  10
ENDBRANCH   5   6
BRANCH   5  22
ATOM     22  CB  LEU A   3      20.133  12.236  -5.211  1.00  0.00     0.038 C 
BRANCH  22  23
ATOM     23  CG  LEU A   3      20.405  11.668  -3.791  1.00  0.00    -0.015 C 
ATOM     24  CD1 LEU A   3      21.806  12.071  -3.322  1.00  0.00     0.007 C 
ATOM     25  CD2 LEU A   3      19.353  12.145  -2.782  1.00  0.00     0.007 C 
ENDBRANCH  22  23
ENDBRANCH   5  22
ENDBRANCH   1   5
BRANCH   3  26
ATOM     26  CA  ASN A   4      21.347   8.747  -8.155  1.00  0.00     0.180 C 
BRANCH  26  27
ATOM     27  C   ASN A   4      22.713   9.207  -8.528  1.00  0.00     0.243 C 
ATOM     28  N   ARG A   5      23.821   8.710  -7.790  1.00  0.00    -0.343 N 
ATOM     29  O   ASN A   4      22.879  10.032  -9.467  1.00  0.00    -0.273 OA
ATOM     30  H   UNL     1      23.665   7.988  -7.050  1.00  0.00     0.164 HD
BRANCH  28  31
ATOM     31  CA  ARG A   5      25.184   9.119  -8.072  1.00  0.00     0.171 C 
BRANCH  31  32
ATOM     32  C   ARG A   5      25.902   7.968  -8.686  1.00  0.00     0.243 C 
ATOM     33  N   ASN A   6      25.916   7.865 -10.103  1.00  0.00    -0.341 N 
ATOM     34  O   ARG A   5      26.449   7.086  -7.970  1.00  0.00    -0.273 OA
ATOM     35  H   UNL     1      25.494   8.650 -10.651  1.00  0.00     0.164 HD
BRANCH  33  36
ATOM     36  CA  ASN A   6      26.542   6.750 -10.804  1.00  0.00     0.201 C 
BRANCH  36  37
ATOM     37  C   ASN A   6      27.996   6.641 -10.415  1.00  0.00     0.326 C 
ATOM     38  O   ASN A   6      28.793   7.580 -10.678  1.00  0.00    -0.250 OA
BRANCH  37  39
ATOM     39  OXT ASN A   6      28.475   5.506  -9.766  1.00  0.00    -0.480 OA
ATOM     40  H   UNL     1      27.863   4.731  -9.536  1.00  0.00     0.296 HD
ENDBRANCH  37  39
ENDBRANCH  36  37
BRANCH  36  41
ATOM     41  CB  ASN A   6      26.426   6.948 -12.323  1.00  0.00     0.136 C 
BRANCH  41  42
ATOM     42  CG  ASN A   6      25.012   7.182 -12.773  1.00  0.00     0.220 C 
ATOM     43  ND2 ASN A   6      24.755   8.091 -13.835  1.00  0.00    -0.370 N 
ATOM     44  OD1 ASN A   6      24.055   6.562 -12.240  1.00  0.00    -0.275 OA
ATOM     45  H   UNL     1      25.534   8.599 -14.309  1.00  0.00     0.159 HD
ATOM     46  H   UNL     1      23.776   8.258 -14.157  1.00  0.00     0.159 HD
ENDBRANCH  41  42
ENDBRANCH  36  41
ENDBRANCH  33  36
ENDBRANCH  31  32
BRANCH  31  47
ATOM     47  CB  ARG A   5      25.858   9.601  -6.793  1.00  0.00     0.037 C 
BRANCH  47  48
ATOM     48  CG  ARG A   5      25.163  10.858  -6.270  1.00  0.00     0.024 C 
BRANCH  48  49
ATOM     49  CD  ARG A   5      25.838  11.390  -5.014  1.00  0.00     0.116 C 
BRANCH  49  50
ATOM     50  NE  ARG A   5      25.377  10.686  -3.820  1.00  0.00    -0.357 N 
ATOM     51  CZ  ARG A   5      25.469  11.281  -2.526  1.00  0.00     0.185 C 
ATOM     52  NH2 ARG A   5      26.107  12.546  -2.352  1.00  0.00    -0.370 N 
ATOM     53  H   UNL     1      24.894   9.763  -3.911  1.00  0.00     0.163 HD
ATOM     54  H   UNL     1      26.696  12.982  -3.094  1.00  0.00     0.159 HD
ATOM     55  H   UNL     1      26.080  13.024  -1.423  1.00  0.00     0.159 HD
BRANCH  51  56
ATOM     56  NH1 ARG A   5      24.954  10.672  -1.507  1.00  0.00    -0.270 NA
ATOM     57  H   UNL     1      24.995  11.077  -0.545  1.00  0.00     0.191 HD
ENDBRANCH  51  56
ENDBRANCH  49  50
ENDBRANCH  48  49
ENDBRANCH  47  48
ENDBRANCH  31  47
ENDBRANCH  28  31
ENDBRANCH  26  27
BRANCH  26  58
ATOM     58  CB  ASN A   4      20.661   8.002  -9.303  1.00  0.00     0.134 C 
BRANCH  58  59
ATOM     59  CG  ASN A   4      21.414   6.777  -9.755  1.00  0.00     0.220 C 
ATOM     60  ND2 ASN A   4      21.252   6.297 -11.089  1.00  0.00    -0.370 N 
ATOM     61  OD1 ASN A   4      22.120   6.120  -8.943  1.00  0.00    -0.275 OA
ATOM     62  H   UNL     1      20.655   6.813 -11.773  1.00  0.00     0.159 HD
ATOM     63  H   UNL     1      21.712   5.409 -11.389  1.00  0.00     0.159 HD
ENDBRANCH  58  59
ENDBRANCH  26  58
ENDBRANCH   3  26
TORSDOF 26
