REMARK SMILES CC(C)C[C@H](NC(=O)[C@H](Cc1ccccc1)NC(=O)[C@@H](N)Cc1c[nH]cn1)C(=O)NCC(=O)N[C@@H](CCCNC(=N)N)C(=O)N[C@@H](CC(N)=O)C(=O)O
REMARK SMILES IDX 28 1 29 2 30 3 5 5 6 6 7 7 8 8 9 10 17 11 18 12 19 13 20 15
REMARK SMILES IDX 21 16 22 19 23 20 27 21 24 22 26 23 25 24 10 26 11 27 12 28
REMARK SMILES IDX 16 29 13 30 15 31 14 32 4 33 2 34 1 35 3 36 31 37 32 38
REMARK SMILES IDX 34 39 33 40 35 42 43 43 45 44 44 45 46 47 51 48 52 49 53 50
REMARK SMILES IDX 47 52 48 53 49 54 50 55 36 58 37 59 38 60 39 61 40 62 42 63
REMARK SMILES IDX 41 67
REMARK H PARENT 30 4 6 9 17 14 21 17 21 18 25 25 34 41 45 46 53 51 49 56 49 57
REMARK H PARENT 39 64 42 65 42 66 41 68
ROOT
ATOM      1  C   LEU A   3      20.060  10.078  -6.483  1.00  0.00     0.243 C 
ATOM      2  O   LEU A   3      20.181   9.152  -5.634  1.00  0.00    -0.273 OA
ATOM      3  N   GLY A   4      20.561   9.913  -7.799  1.00  0.00    -0.345 N 
ATOM      4  H   UNL     1      20.396  10.662  -8.510  1.00  0.00     0.164 HD
ENDROOT
BRANCH   1   5
ATOM      5  CA  LEU A   3      19.344  11.348  -6.147  1.00  0.00     0.171 C 
BRANCH   5   6
ATOM      6  N   LEU A   3      18.086  11.015  -5.539  1.00  0.00    -0.343 N 
ATOM      7  C   PHE A   2      16.892  11.745  -5.775  1.00  0.00     0.243 C 
ATOM      8  O   PHE A   2      16.913  12.796  -6.473  1.00  0.00    -0.273 OA
ATOM      9  H   UNL     1      18.157  10.376  -4.722  1.00  0.00     0.164 HD
BRANCH   7  10
ATOM     10  CA  PHE A   2      15.653  11.316  -5.063  1.00  0.00     0.175 C 
BRANCH  10  11
ATOM     11  N   PHE A   2      14.469  11.750  -5.789  1.00  0.00    -0.343 N 
ATOM     12  C   HIS A   1      13.908  13.049  -5.628  1.00  0.00     0.237 C 
ATOM     13  O   HIS A   1      14.433  13.862  -4.818  1.00  0.00    -0.273 OA
ATOM     14  H   UNL     1      14.015  11.066  -6.429  1.00  0.00     0.164 HD
BRANCH  12  15
ATOM     15  CA  HIS A   1      12.656  13.421  -6.380  1.00  0.00     0.147 C 
BRANCH  15  16
ATOM     16  N   HIS A   1      12.496  14.875  -6.379  1.00  0.00    -0.320 NA
ATOM     17  H   UNL     1      13.216  15.304  -7.008  1.00  0.00     0.119 HD
ATOM     18  H   UNL     1      11.554  15.113  -6.767  1.00  0.00     0.119 HD
ENDBRANCH  15  16
BRANCH  15  19
ATOM     19  CB  HIS A   1      12.664  12.883  -7.839  1.00  0.00     0.086 C 
BRANCH  19  20
ATOM     20  CG  HIS A   1      11.995  11.544  -7.979  1.00  0.00     0.060 A 
ATOM     21  ND1 HIS A   1      12.583  10.462  -8.531  1.00  0.00    -0.242 NA
ATOM     22  CD2 HIS A   1      10.692  11.244  -7.643  1.00  0.00     0.107 A 
ATOM     23  CE1 HIS A   1      11.622   9.516  -8.496  1.00  0.00     0.196 A 
ATOM     24  NE2 HIS A   1      10.468   9.962  -7.965  1.00  0.00    -0.351 N 
ATOM     25  H   UNL     1       9.581   9.425  -7.839  1.00  0.00     0.167 HD
ENDBRANCH  19  20
ENDBRANCH  15  19
ENDBRANCH  12  15
ENDBRANCH  10  11
BRANCH  10  26
ATOM     26  CB  PHE A   2      15.602   9.777  -4.889  1.00  0.00     0.070 C 
BRANCH  26  27
ATOM     27  CG  PHE A   2      14.430   9.297  -4.098  1.00  0.00    -0.045 A 
ATOM     28  CD1 PHE A   2      13.895  10.051  -3.037  1.00  0.00     0.004 A 
ATOM     29  CD2 PHE A   2      13.961   7.994  -4.313  1.00  0.00     0.004 A 
ATOM     30  CE1 PHE A   2      12.866   9.537  -2.259  1.00  0.00     0.000 A 
ATOM     31  CE2 PHE A   2      12.937   7.478  -3.520  1.00  0.00     0.000 A 
ATOM     32  CZ  PHE A   2      12.385   8.252  -2.500  1.00  0.00     0.000 A 
ENDBRANCH  26  27
ENDBRANCH  10  26
ENDBRANCH   7  10
ENDBRANCH   5   6
BRANCH   5  33
ATOM     33  CB  LEU A   3      20.166  12.249  -5.216  1.00  0.00     0.038 C 
BRANCH  33  34
ATOM     34  CG  LEU A   3      20.417  11.677  -3.791  1.00  0.00    -0.015 C 
ATOM     35  CD1 LEU A   3      21.819  12.065  -3.316  1.00  0.00     0.007 C 
ATOM     36  CD2 LEU A   3      19.369  12.167  -2.782  1.00  0.00     0.007 C 
ENDBRANCH  33  34
ENDBRANCH   5  33
ENDBRANCH   1   5
BRANCH   3  37
ATOM     37  CA  GLY A   4      21.333   8.757  -8.203  1.00  0.00     0.216 C 
BRANCH  37  38
ATOM     38  C   GLY A   4      22.707   9.205  -8.540  1.00  0.00     0.240 C 
ATOM     39  N   ARG A   5      23.807   8.709  -7.788  1.00  0.00    -0.343 N 
ATOM     40  O   GLY A   4      22.885  10.031  -9.475  1.00  0.00    -0.273 OA
ATOM     41  H   UNL     1      23.640   7.993  -7.045  1.00  0.00     0.164 HD
BRANCH  39  42
ATOM     42  CA  ARG A   5      25.175   9.114  -8.068  1.00  0.00     0.171 C 
BRANCH  42  43
ATOM     43  C   ARG A   5      25.896   7.965  -8.684  1.00  0.00     0.243 C 
ATOM     44  N   ASN A   6      25.914   7.866 -10.101  1.00  0.00    -0.341 N 
ATOM     45  O   ARG A   5      26.448   7.085  -7.969  1.00  0.00    -0.273 OA
ATOM     46  H   UNL     1      25.495   8.652 -10.649  1.00  0.00     0.164 HD
BRANCH  44  47
ATOM     47  CA  ASN A   6      26.542   6.752 -10.804  1.00  0.00     0.201 C 
BRANCH  47  48
ATOM     48  C   ASN A   6      27.993   6.643 -10.417  1.00  0.00     0.326 C 
ATOM     49  O   ASN A   6      28.794   7.580 -10.678  1.00  0.00    -0.250 OA
BRANCH  48  50
ATOM     50  OXT ASN A   6      28.452   5.499  -9.772  1.00  0.00    -0.480 OA
ATOM     51  H   UNL     1      29.425   5.408  -9.505  1.00  0.00     0.296 HD
ENDBRANCH  48  50
ENDBRANCH  47  48
BRANCH  47  52
ATOM     52  CB  ASN A   6      26.421   6.948 -12.324  1.00  0.00     0.136 C 
BRANCH  52  53
ATOM     53  CG  ASN A   6      25.008   7.179 -12.770  1.00  0.00     0.220 C 
ATOM     54  ND2 ASN A   6      24.763   8.090 -13.831  1.00  0.00    -0.370 N 
ATOM     55  OD1 ASN A   6      24.049   6.560 -12.237  1.00  0.00    -0.275 OA
ATOM     56  H   UNL     1      23.792   8.270 -14.170  1.00  0.00     0.159 HD
ATOM     57  H   UNL     1      23.791   8.269 -14.170  1.00  0.00     0.159 HD
ENDBRANCH  52  53
ENDBRANCH  47  52
ENDBRANCH  44  47
ENDBRANCH  42  43
BRANCH  42  58
ATOM     58  CB  ARG A   5      25.851   9.597  -6.790  1.00  0.00     0.037 C 
BRANCH  58  59
ATOM     59  CG  ARG A   5      25.162  10.858  -6.269  1.00  0.00     0.024 C 
BRANCH  59  60
ATOM     60  CD  ARG A   5      25.838  11.390  -5.014  1.00  0.00     0.116 C 
BRANCH  60  61
ATOM     61  NE  ARG A   5      25.377  10.686  -3.820  1.00  0.00    -0.357 N 
ATOM     62  CZ  ARG A   5      25.469  11.281  -2.526  1.00  0.00     0.185 C 
ATOM     63  NH2 ARG A   5      26.107  12.546  -2.352  1.00  0.00    -0.370 N 
ATOM     64  H   UNL     1      24.893   9.763  -3.911  1.00  0.00     0.163 HD
ATOM     65  H   UNL     1      26.080  13.024  -1.424  1.00  0.00     0.159 HD
ATOM     66  H   UNL     1      26.697  12.982  -3.094  1.00  0.00     0.159 HD
BRANCH  62  67
ATOM     67  NH1 ARG A   5      24.954  10.672  -1.506  1.00  0.00    -0.270 NA
ATOM     68  H   UNL     1      24.996  11.077  -0.545  1.00  0.00     0.191 HD
ENDBRANCH  62  67
ENDBRANCH  60  61
ENDBRANCH  59  60
ENDBRANCH  58  59
ENDBRANCH  42  58
ENDBRANCH  39  42
ENDBRANCH  37  38
ENDBRANCH   3  37
TORSDOF 26
