REMARK SMILES CC(C)C[C@H](NC(=O)[C@H](C)NC(=O)[C@H](Cc1ccccc1)NC(=O)[C@@H](N)CO)C(=O)N[C@@H](CCCNC(=N)N)C(=O)N[C@@H](C)C(=O)O
REMARK SMILES IDX 7 1 8 2 6 3 9 5 10 6 11 7 12 8 13 9 14 11 22 12 23 13 24 14
REMARK SMILES IDX 25 16 26 17 27 20 28 21 15 23 16 24 17 25 21 26 18 27 20 28
REMARK SMILES IDX 19 29 5 30 29 31 31 32 30 33 32 35 40 36 42 37 41 38 43 40
REMARK SMILES IDX 44 41 45 42 46 43 47 44 33 46 34 47 35 48 36 49 37 50 39 51
REMARK SMILES IDX 38 55 4 57 2 58 1 59 3 60
REMARK H PARENT 6 4 11 10 22 15 26 18 26 19 28 22 31 34 42 39 47 45 36 52
REMARK H PARENT 39 53 39 54 38 56
ROOT
ATOM      1  C   ALA A   3      20.046  10.101  -6.462  1.00  0.00     0.242 C 
ATOM      2  O   ALA A   3      20.174   9.200  -5.586  1.00  0.00    -0.273 OA
ATOM      3  N   LEU A   4      20.560   9.920  -7.772  1.00  0.00    -0.343 N 
ATOM      4  H   UNL     1      20.391  10.655  -8.498  1.00  0.00     0.164 HD
ENDROOT
BRANCH   1   5
ATOM      5  CA  ALA A   3      19.341  11.375  -6.146  1.00  0.00     0.168 C 
ATOM      6  CB  ALA A   3      20.179  12.246  -5.221  1.00  0.00     0.041 C 
BRANCH   5   7
ATOM      7  N   ALA A   3      18.095  11.060  -5.495  1.00  0.00    -0.343 N 
ATOM      8  C   PHE A   2      16.888  11.752  -5.774  1.00  0.00     0.243 C 
ATOM      9  O   PHE A   2      16.899  12.792  -6.488  1.00  0.00    -0.273 OA
ATOM     10  H   UNL     1      18.188  10.558  -4.585  1.00  0.00     0.164 HD
BRANCH   8  11
ATOM     11  CA  PHE A   2      15.652  11.314  -5.060  1.00  0.00     0.175 C 
BRANCH  11  12
ATOM     12  N   PHE A   2      14.453  11.739  -5.769  1.00  0.00    -0.343 N 
ATOM     13  C   SER A   1      13.913  13.049  -5.637  1.00  0.00     0.239 C 
ATOM     14  O   SER A   1      14.447  13.869  -4.840  1.00  0.00    -0.273 OA
ATOM     15  H   UNL     1      13.862  10.998  -6.205  1.00  0.00     0.164 HD
BRANCH  13  16
ATOM     16  CA  SER A   1      12.655  13.409  -6.387  1.00  0.00     0.167 C 
BRANCH  16  17
ATOM     17  N   SER A   1      12.467  14.861  -6.384  1.00  0.00    -0.318 NA
ATOM     18  H   UNL     1      12.301  15.172  -5.399  1.00  0.00     0.119 HD
ATOM     19  H   UNL     1      11.582  15.088  -6.894  1.00  0.00     0.119 HD
ENDBRANCH  16  17
BRANCH  16  20
ATOM     20  CB  SER A   1      12.698  12.894  -7.844  1.00  0.00     0.184 C 
BRANCH  20  21
ATOM     21  OG  SER A   1      11.440  13.041  -8.441  1.00  0.00    -0.394 OA
ATOM     22  H   UNL     1      11.550  12.778  -9.392  1.00  0.00     0.210 HD
ENDBRANCH  20  21
ENDBRANCH  16  20
ENDBRANCH  13  16
ENDBRANCH  11  12
BRANCH  11  23
ATOM     23  CB  PHE A   2      15.619   9.776  -4.891  1.00  0.00     0.070 C 
BRANCH  23  24
ATOM     24  CG  PHE A   2      14.449   9.289  -4.088  1.00  0.00    -0.045 A 
ATOM     25  CD1 PHE A   2      13.906  10.046  -3.032  1.00  0.00     0.004 A 
ATOM     26  CD2 PHE A   2      13.972   7.990  -4.310  1.00  0.00     0.004 A 
ATOM     27  CE1 PHE A   2      12.870   9.536  -2.261  1.00  0.00     0.000 A 
ATOM     28  CE2 PHE A   2      12.941   7.478  -3.522  1.00  0.00     0.000 A 
ATOM     29  CZ  PHE A   2      12.387   8.253  -2.503  1.00  0.00     0.000 A 
ENDBRANCH  23  24
ENDBRANCH  11  23
ENDBRANCH   8  11
ENDBRANCH   5   7
ENDBRANCH   1   5
BRANCH   3  30
ATOM     30  CA  LEU A   4      21.347   8.759  -8.137  1.00  0.00     0.171 C 
BRANCH  30  31
ATOM     31  C   LEU A   4      22.712   9.216  -8.519  1.00  0.00     0.243 C 
ATOM     32  N   ARG A   5      23.822   8.720  -7.787  1.00  0.00    -0.343 N 
ATOM     33  O   LEU A   4      22.874  10.033  -9.467  1.00  0.00    -0.273 OA
ATOM     34  H   UNL     1      23.668   8.030  -7.016  1.00  0.00     0.164 HD
BRANCH  32  35
ATOM     35  CA  ARG A   5      25.185   9.120  -8.078  1.00  0.00     0.171 C 
BRANCH  35  36
ATOM     36  C   ARG A   5      25.897   7.963  -8.692  1.00  0.00     0.243 C 
ATOM     37  N   ALA A   6      25.884   7.840 -10.110  1.00  0.00    -0.341 N 
ATOM     38  O   ARG A   5      26.455   7.090  -7.974  1.00  0.00    -0.273 OA
ATOM     39  H   UNL     1      25.367   8.562 -10.663  1.00  0.00     0.164 HD
BRANCH  37  40
ATOM     40  CA  ALA A   6      26.544   6.745 -10.813  1.00  0.00     0.189 C 
ATOM     41  CB  ALA A   6      26.419   6.955 -12.323  1.00  0.00     0.043 C 
BRANCH  40  42
ATOM     42  C   ALA A   6      27.993   6.652 -10.418  1.00  0.00     0.325 C 
ATOM     43  O   ALA A   6      28.790   7.589 -10.686  1.00  0.00    -0.250 OA
BRANCH  42  44
ATOM     44  OXT ALA A   6      28.456   5.520  -9.752  1.00  0.00    -0.480 OA
ATOM     45  H   UNL     1      29.427   5.440  -9.477  1.00  0.00     0.296 HD
ENDBRANCH  42  44
ENDBRANCH  40  42
ENDBRANCH  37  40
ENDBRANCH  35  36
BRANCH  35  46
ATOM     46  CB  ARG A   5      25.864   9.604  -6.801  1.00  0.00     0.037 C 
BRANCH  46  47
ATOM     47  CG  ARG A   5      25.167  10.858  -6.272  1.00  0.00     0.024 C 
BRANCH  47  48
ATOM     48  CD  ARG A   5      25.842  11.389  -5.015  1.00  0.00     0.116 C 
BRANCH  48  49
ATOM     49  NE  ARG A   5      25.378  10.686  -3.821  1.00  0.00    -0.357 N 
ATOM     50  CZ  ARG A   5      25.470  11.281  -2.527  1.00  0.00     0.185 C 
ATOM     51  NH2 ARG A   5      26.109  12.546  -2.352  1.00  0.00    -0.370 N 
ATOM     52  H   UNL     1      24.899   9.761  -3.913  1.00  0.00     0.163 HD
ATOM     53  H   UNL     1      26.699  12.981  -3.094  1.00  0.00     0.159 HD
ATOM     54  H   UNL     1      26.084  13.022  -1.423  1.00  0.00     0.159 HD
BRANCH  50  55
ATOM     55  NH1 ARG A   5      24.956  10.671  -1.507  1.00  0.00    -0.270 NA
ATOM     56  H   UNL     1      24.999  11.075  -0.545  1.00  0.00     0.191 HD
ENDBRANCH  50  55
ENDBRANCH  48  49
ENDBRANCH  47  48
ENDBRANCH  46  47
ENDBRANCH  35  46
ENDBRANCH  32  35
ENDBRANCH  30  31
BRANCH  30  57
ATOM     57  CB  LEU A   4      20.656   7.998  -9.271  1.00  0.00     0.038 C 
BRANCH  57  58
ATOM     58  CG  LEU A   4      21.449   6.770  -9.770  1.00  0.00    -0.015 C 
ATOM     59  CD1 LEU A   4      21.764   5.778  -8.639  1.00  0.00     0.007 C 
ATOM     60  CD2 LEU A   4      20.659   6.066 -10.876  1.00  0.00     0.007 C 
ENDBRANCH  57  58
ENDBRANCH  30  57
ENDBRANCH   3  30
TORSDOF 24
