REMARK SMILES N=C(N)NCCC[C@H](NC(=O)[C@H](Cc1ccc(O)cc1)NC(=O)CNC(=O)[C@H](Cc1ccccc1)NC(=O)[C@@H](N)CO)C(=O)N[C@@H](CC(N)=O)C(=O)O
REMARK SMILES IDX 22 1 23 2 21 3 24 5 25 6 26 7 27 8 28 10 36 11 37 12 38 13
REMARK SMILES IDX 39 15 40 16 41 19 42 20 29 22 30 23 31 24 35 25 32 26 34 27
REMARK SMILES IDX 33 28 12 29 10 30 9 31 11 32 8 34 43 35 45 36 44 37 46 39
REMARK SMILES IDX 51 40 52 41 53 42 47 44 48 45 49 46 50 47 7 50 6 51 5 52
REMARK SMILES IDX 4 53 2 54 3 55 1 59 13 61 14 62 15 63 20 64 16 65 19 66
REMARK SMILES IDX 17 67 18 68
REMARK H PARENT 21 4 25 9 36 14 40 17 40 18 42 21 9 33 45 38 53 43 49 48 49 49
REMARK H PARENT 4 56 3 57 3 58 1 60 18 69
ROOT
ATOM      1  C   GLY A   3       1.930  -1.403   0.506  1.00  0.00     0.240 C 
ATOM      2  O   GLY A   3       2.240  -1.713  -0.676  1.00  0.00    -0.273 OA
ATOM      3  N   TYR A   4       0.559  -1.423   0.931  1.00  0.00    -0.342 N 
ATOM      4  H   UNL     1       0.349  -1.274   1.947  1.00  0.00     0.164 HD
ENDROOT
BRANCH   1   5
ATOM      5  CA  GLY A   3       3.008  -1.048   1.485  1.00  0.00     0.216 C 
BRANCH   5   6
ATOM      6  N   GLY A   3       3.964  -0.128   0.868  1.00  0.00    -0.345 N 
ATOM      7  C   PHE A   2       5.318  -0.497   0.558  1.00  0.00     0.243 C 
ATOM      8  O   PHE A   2       5.765  -1.629   0.898  1.00  0.00    -0.273 OA
ATOM      9  H   UNL     1       3.619   0.820   0.590  1.00  0.00     0.164 HD
BRANCH   7  10
ATOM     10  CA  PHE A   2       6.196   0.446  -0.221  1.00  0.00     0.175 C 
BRANCH  10  11
ATOM     11  N   PHE A   2       7.601   0.241   0.146  1.00  0.00    -0.343 N 
ATOM     12  C   SER A   1       8.223   0.959   1.223  1.00  0.00     0.239 C 
ATOM     13  O   SER A   1       7.534   1.748   1.929  1.00  0.00    -0.273 OA
ATOM     14  H   UNL     1       8.136  -0.509  -0.356  1.00  0.00     0.164 HD
BRANCH  12  15
ATOM     15  CA  SER A   1       9.706   0.842   1.500  1.00  0.00     0.167 C 
BRANCH  15  16
ATOM     16  N   SER A   1      10.159  -0.554   1.520  1.00  0.00    -0.318 NA
ATOM     17  H   UNL     1       9.525  -1.115   2.143  1.00  0.00     0.119 HD
ATOM     18  H   UNL     1      10.114  -0.976   0.561  1.00  0.00     0.119 HD
ENDBRANCH  15  16
BRANCH  15  19
ATOM     19  CB  SER A   1      10.520   1.673   0.498  1.00  0.00     0.184 C 
BRANCH  19  20
ATOM     20  OG  SER A   1      10.318   1.219  -0.811  1.00  0.00    -0.394 OA
ATOM     21  H   UNL     1      10.779   1.867  -1.403  1.00  0.00     0.210 HD
ENDBRANCH  19  20
ENDBRANCH  15  19
ENDBRANCH  12  15
ENDBRANCH  10  11
BRANCH  10  22
ATOM     22  CB  PHE A   2       5.987   0.225  -1.730  1.00  0.00     0.070 C 
BRANCH  22  23
ATOM     23  CG  PHE A   2       6.893   1.110  -2.549  1.00  0.00    -0.045 A 
ATOM     24  CD1 PHE A   2       6.617   2.481  -2.674  1.00  0.00     0.004 A 
ATOM     25  CD2 PHE A   2       8.059   0.586  -3.136  1.00  0.00     0.004 A 
ATOM     26  CE1 PHE A   2       7.483   3.313  -3.390  1.00  0.00     0.000 A 
ATOM     27  CE2 PHE A   2       8.922   1.420  -3.857  1.00  0.00     0.000 A 
ATOM     28  CZ  PHE A   2       8.630   2.781  -3.990  1.00  0.00     0.000 A 
ENDBRANCH  22  23
ENDBRANCH  10  22
ENDBRANCH   7  10
ENDBRANCH   5   6
ENDBRANCH   1   5
BRANCH   3  29
ATOM     29  CA  TYR A   4      -0.552  -1.736   0.024  1.00  0.00     0.175 C 
BRANCH  29  30
ATOM     30  C   TYR A   4      -1.677  -0.738   0.181  1.00  0.00     0.243 C 
ATOM     31  N   ARG A   5      -2.560  -0.483  -0.923  1.00  0.00    -0.343 N 
ATOM     32  O   TYR A   4      -1.870  -0.173   1.295  1.00  0.00    -0.273 OA
ATOM     33  H   UNL     1      -2.451  -1.054  -1.796  1.00  0.00     0.164 HD
BRANCH  31  34
ATOM     34  CA  ARG A   5      -3.712   0.418  -0.820  1.00  0.00     0.171 C 
BRANCH  34  35
ATOM     35  C   ARG A   5      -4.945  -0.400  -0.523  1.00  0.00     0.243 C 
ATOM     36  N   ASN A   6      -5.553  -0.349   0.776  1.00  0.00    -0.341 N 
ATOM     37  O   ARG A   5      -5.417  -1.161  -1.411  1.00  0.00    -0.273 OA
ATOM     38  H   UNL     1      -5.101   0.239   1.515  1.00  0.00     0.164 HD
BRANCH  36  39
ATOM     39  CA  ASN A   6      -6.771  -1.102   1.101  1.00  0.00     0.201 C 
BRANCH  39  40
ATOM     40  C   ASN A   6      -7.949  -0.481   0.399  1.00  0.00     0.326 C 
ATOM     41  O   ASN A   6      -8.259   0.721   0.620  1.00  0.00    -0.250 OA
BRANCH  40  42
ATOM     42  OXT ASN A   6      -8.717  -1.253  -0.472  1.00  0.00    -0.480 OA
ATOM     43  H   UNL     1      -9.519  -0.857  -0.948  1.00  0.00     0.296 HD
ENDBRANCH  40  42
ENDBRANCH  39  40
BRANCH  39  44
ATOM     44  CB  ASN A   6      -6.998  -1.127   2.625  1.00  0.00     0.136 C 
BRANCH  44  45
ATOM     45  CG  ASN A   6      -8.146  -2.021   3.001  1.00  0.00     0.220 C 
ATOM     46  ND2 ASN A   6      -9.471  -1.492   3.102  1.00  0.00    -0.370 N 
ATOM     47  OD1 ASN A   6      -7.947  -3.251   3.196  1.00  0.00    -0.275 OA
ATOM     48  H   UNL     1      -9.657  -0.479   2.917  1.00  0.00     0.159 HD
ATOM     49  H   UNL     1     -10.276  -2.119   3.330  1.00  0.00     0.159 HD
ENDBRANCH  44  45
ENDBRANCH  39  44
ENDBRANCH  36  39
ENDBRANCH  34  35
BRANCH  34  50
ATOM     50  CB  ARG A   5      -3.849   1.232  -2.128  1.00  0.00     0.037 C 
BRANCH  50  51
ATOM     51  CG  ARG A   5      -4.667   2.527  -1.981  1.00  0.00     0.024 C 
BRANCH  51  52
ATOM     52  CD  ARG A   5      -6.172   2.276  -1.802  1.00  0.00     0.116 C 
BRANCH  52  53
ATOM     53  NE  ARG A   5      -6.925   3.525  -1.914  1.00  0.00    -0.357 N 
ATOM     54  CZ  ARG A   5      -7.185   4.220  -3.149  1.00  0.00     0.185 C 
ATOM     55  NH2 ARG A   5      -7.856   5.480  -3.114  1.00  0.00    -0.370 N 
ATOM     56  H   UNL     1      -7.333   3.920  -1.036  1.00  0.00     0.163 HD
ATOM     57  H   UNL     1      -8.101   5.979  -4.000  1.00  0.00     0.159 HD
ATOM     58  H   UNL     1      -8.121   5.911  -2.200  1.00  0.00     0.159 HD
BRANCH  54  59
ATOM     59  NH1 ARG A   5      -6.835   3.725  -4.296  1.00  0.00    -0.270 NA
ATOM     60  H   UNL     1      -6.347   2.809  -4.410  1.00  0.00     0.191 HD
ENDBRANCH  54  59
ENDBRANCH  52  53
ENDBRANCH  51  52
ENDBRANCH  50  51
ENDBRANCH  34  50
ENDBRANCH  31  34
ENDBRANCH  29  30
BRANCH  29  61
ATOM     61  CB  TYR A   4      -1.039  -3.181   0.241  1.00  0.00     0.070 C 
BRANCH  61  62
ATOM     62  CG  TYR A   4      -1.599  -3.423   1.622  1.00  0.00    -0.045 A 
ATOM     63  CD1 TYR A   4      -0.750  -3.792   2.680  1.00  0.00     0.007 A 
ATOM     64  CD2 TYR A   4      -2.975  -3.269   1.868  1.00  0.00     0.007 A 
ATOM     65  CE1 TYR A   4      -1.267  -3.999   3.963  1.00  0.00     0.046 A 
ATOM     66  CE2 TYR A   4      -3.488  -3.472   3.153  1.00  0.00     0.046 A 
ATOM     67  CZ  TYR A   4      -2.638  -3.834   4.203  1.00  0.00     0.115 A 
BRANCH  67  68
ATOM     68  OH  TYR A   4      -3.164  -4.024   5.479  1.00  0.00    -0.508 OA
ATOM     69  H   UNL     1      -2.572  -4.286   6.259  1.00  0.00     0.293 HD
ENDBRANCH  67  68
ENDBRANCH  61  62
ENDBRANCH  29  61
ENDBRANCH   3  29
TORSDOF 27
