REMARK SMILES CC(C)C[C@H](NC(=O)[C@H](Cc1ccccc1)NC(=O)[C@H](C)NC(=O)[C@@H](N)CO)C(=O)N[C@@H](CCCNC(=N)N)C(=O)N[C@@H](CC(N)=O)C(=O)O
REMARK SMILES IDX 7 1 8 2 6 3 9 5 17 6 18 7 19 8 20 10 21 11 22 12 23 13 24 14
REMARK SMILES IDX 25 16 26 17 27 20 28 21 10 23 11 24 12 25 16 26 13 27 15 28
REMARK SMILES IDX 14 29 5 30 29 31 31 32 30 33 32 35 40 36 42 37 41 38 43 40
REMARK SMILES IDX 48 41 49 42 50 43 44 45 45 46 46 47 47 48 33 51 34 52 35 53
REMARK SMILES IDX 36 54 37 55 39 56 38 60 4 62 2 63 1 64 3 65
REMARK H PARENT 6 4 17 9 22 15 26 18 26 19 28 22 31 34 42 39 50 44 46 49 46 50
REMARK H PARENT 36 57 39 58 39 59 38 61
ROOT
ATOM      1  C   PHE A   3      20.042  10.087  -6.461  1.00  0.00     0.243 C 
ATOM      2  O   PHE A   3      20.159   9.168  -5.604  1.00  0.00    -0.273 OA
ATOM      3  N   LEU A   4      20.563   9.924  -7.771  1.00  0.00    -0.343 N 
ATOM      4  H   UNL     1      20.399  10.666  -8.489  1.00  0.00     0.164 HD
ENDROOT
BRANCH   1   5
ATOM      5  CA  PHE A   3      19.331  11.353  -6.124  1.00  0.00     0.175 C 
BRANCH   5   6
ATOM      6  N   PHE A   3      18.067  11.018  -5.504  1.00  0.00    -0.342 N 
ATOM      7  C   ALA A   2      16.872  11.748  -5.738  1.00  0.00     0.242 C 
ATOM      8  O   ALA A   2      16.893  12.792  -6.447  1.00  0.00    -0.273 OA
ATOM      9  H   UNL     1      18.099  10.345  -4.707  1.00  0.00     0.164 HD
BRANCH   7  10
ATOM     10  CA  ALA A   2      15.617  11.296  -5.041  1.00  0.00     0.168 C 
ATOM     11  CB  ALA A   2      15.567   9.764  -4.904  1.00  0.00     0.041 C 
BRANCH  10  12
ATOM     12  N   ALA A   2      14.437  11.733  -5.768  1.00  0.00    -0.343 N 
ATOM     13  C   SER A   1      13.910  13.048  -5.638  1.00  0.00     0.239 C 
ATOM     14  O   SER A   1      14.449  13.865  -4.842  1.00  0.00    -0.273 OA
ATOM     15  H   UNL     1      13.847  11.001  -6.220  1.00  0.00     0.164 HD
BRANCH  13  16
ATOM     16  CA  SER A   1      12.653  13.413  -6.386  1.00  0.00     0.167 C 
BRANCH  16  17
ATOM     17  N   SER A   1      12.468  14.865  -6.382  1.00  0.00    -0.318 NA
ATOM     18  H   UNL     1      11.583  15.093  -6.891  1.00  0.00     0.119 HD
ATOM     19  H   UNL     1      12.303  15.175  -5.396  1.00  0.00     0.119 HD
ENDBRANCH  16  17
BRANCH  16  20
ATOM     20  CB  SER A   1      12.694  12.900  -7.846  1.00  0.00     0.184 C 
BRANCH  20  21
ATOM     21  OG  SER A   1      11.438  13.038  -8.451  1.00  0.00    -0.394 OA
ATOM     22  H   UNL     1      10.858  12.328  -8.069  1.00  0.00     0.210 HD
ENDBRANCH  20  21
ENDBRANCH  16  20
ENDBRANCH  13  16
ENDBRANCH  10  12
ENDBRANCH   7  10
ENDBRANCH   5   6
BRANCH   5  23
ATOM     23  CB  PHE A   3      20.170  12.249  -5.197  1.00  0.00     0.070 C 
BRANCH  23  24
ATOM     24  CG  PHE A   3      20.370  11.672  -3.813  1.00  0.00    -0.045 A 
ATOM     25  CD1 PHE A   3      21.440  10.803  -3.543  1.00  0.00     0.004 A 
ATOM     26  CD2 PHE A   3      19.442  11.955  -2.795  1.00  0.00     0.004 A 
ATOM     27  CE1 PHE A   3      21.548  10.190  -2.291  1.00  0.00     0.000 A 
ATOM     28  CE2 PHE A   3      19.573  11.364  -1.535  1.00  0.00     0.000 A 
ATOM     29  CZ  PHE A   3      20.621  10.476  -1.286  1.00  0.00     0.000 A 
ENDBRANCH  23  24
ENDBRANCH   5  23
ENDBRANCH   1   5
BRANCH   3  30
ATOM     30  CA  LEU A   4      21.348   8.762  -8.139  1.00  0.00     0.171 C 
BRANCH  30  31
ATOM     31  C   LEU A   4      22.713   9.217  -8.520  1.00  0.00     0.243 C 
ATOM     32  N   ARG A   5      23.822   8.720  -7.785  1.00  0.00    -0.343 N 
ATOM     33  O   LEU A   4      22.877  10.033  -9.468  1.00  0.00    -0.273 OA
ATOM     34  H   UNL     1      23.666   8.031  -7.015  1.00  0.00     0.164 HD
BRANCH  32  35
ATOM     35  CA  ARG A   5      25.185   9.122  -8.073  1.00  0.00     0.171 C 
BRANCH  35  36
ATOM     36  C   ARG A   5      25.900   7.968  -8.685  1.00  0.00     0.243 C 
ATOM     37  N   ASN A   6      25.913   7.864 -10.102  1.00  0.00    -0.341 N 
ATOM     38  O   ARG A   5      26.447   7.087  -7.969  1.00  0.00    -0.273 OA
ATOM     39  H   UNL     1      25.488   8.647 -10.651  1.00  0.00     0.164 HD
BRANCH  37  40
ATOM     40  CA  ASN A   6      26.542   6.751 -10.804  1.00  0.00     0.201 C 
BRANCH  40  41
ATOM     41  C   ASN A   6      27.993   6.642 -10.416  1.00  0.00     0.326 C 
ATOM     42  O   ASN A   6      28.794   7.579 -10.677  1.00  0.00    -0.250 OA
BRANCH  41  43
ATOM     43  OXT ASN A   6      28.451   5.499  -9.768  1.00  0.00    -0.480 OA
ATOM     44  H   UNL     1      29.424   5.409  -9.499  1.00  0.00     0.296 HD
ENDBRANCH  41  43
ENDBRANCH  40  41
BRANCH  40  45
ATOM     45  CB  ASN A   6      26.424   6.947 -12.323  1.00  0.00     0.136 C 
BRANCH  45  46
ATOM     46  CG  ASN A   6      25.010   7.180 -12.773  1.00  0.00     0.220 C 
ATOM     47  ND2 ASN A   6      24.753   8.090 -13.833  1.00  0.00    -0.370 N 
ATOM     48  OD1 ASN A   6      24.053   6.558 -12.243  1.00  0.00    -0.275 OA
ATOM     49  H   UNL     1      23.775   8.258 -14.156  1.00  0.00     0.159 HD
ATOM     50  H   UNL     1      25.533   8.600 -14.306  1.00  0.00     0.159 HD
ENDBRANCH  45  46
ENDBRANCH  40  45
ENDBRANCH  37  40
ENDBRANCH  35  36
BRANCH  35  51
ATOM     51  CB  ARG A   5      25.863   9.605  -6.795  1.00  0.00     0.037 C 
BRANCH  51  52
ATOM     52  CG  ARG A   5      25.166  10.859  -6.271  1.00  0.00     0.024 C 
BRANCH  52  53
ATOM     53  CD  ARG A   5      25.839  11.391  -5.014  1.00  0.00     0.116 C 
BRANCH  53  54
ATOM     54  NE  ARG A   5      25.379  10.685  -3.821  1.00  0.00    -0.357 N 
ATOM     55  CZ  ARG A   5      25.471  11.282  -2.526  1.00  0.00     0.185 C 
ATOM     56  NH2 ARG A   5      26.097  12.550  -2.353  1.00  0.00    -0.370 N 
ATOM     57  H   UNL     1      24.904   9.758  -3.917  1.00  0.00     0.163 HD
ATOM     58  H   UNL     1      26.674  12.999  -3.097  1.00  0.00     0.159 HD
ATOM     59  H   UNL     1      26.077  13.015  -1.418  1.00  0.00     0.159 HD
BRANCH  55  60
ATOM     60  NH1 ARG A   5      24.988  10.672  -1.492  1.00  0.00    -0.270 NA
ATOM     61  H   UNL     1      24.545   9.730  -1.565  1.00  0.00     0.191 HD
ENDBRANCH  55  60
ENDBRANCH  53  54
ENDBRANCH  52  53
ENDBRANCH  51  52
ENDBRANCH  35  51
ENDBRANCH  32  35
ENDBRANCH  30  31
BRANCH  30  62
ATOM     62  CB  LEU A   4      20.654   8.000  -9.271  1.00  0.00     0.038 C 
BRANCH  62  63
ATOM     63  CG  LEU A   4      21.448   6.772  -9.768  1.00  0.00    -0.015 C 
ATOM     64  CD1 LEU A   4      21.762   5.779  -8.639  1.00  0.00     0.007 C 
ATOM     65  CD2 LEU A   4      20.661   6.068 -10.877  1.00  0.00     0.007 C 
ENDBRANCH  62  63
ENDBRANCH  30  62
ENDBRANCH   3  30
TORSDOF 26
