REMARK SMILES CC[C@H](C)[C@H](NC(=O)[C@H](CC(C)C)NC(=O)[C@H](CC(N)=O)NC(=O)[C@@H](N)CO)C(=O)N[C@@H](CCCNC(=N)N)C(=O)N[C@@H](CC(N)=O)C(=O)O
REMARK SMILES IDX 7 1 8 2 6 3 9 5 14 6 15 7 16 8 17 10 22 11 23 12 24 13 25 15
REMARK SMILES IDX 26 16 27 19 28 20 18 22 19 23 20 24 21 25 10 28 11 29 12 30
REMARK SMILES IDX 13 31 5 32 29 33 31 34 30 35 32 37 40 38 42 39 41 40 43 42
REMARK SMILES IDX 48 43 49 44 50 45 44 47 45 48 46 49 47 50 33 53 34 54 35 55
REMARK SMILES IDX 36 56 37 57 39 58 38 62 3 64 4 65 2 66 1 67
REMARK H PARENT 6 4 14 9 22 14 26 17 26 18 28 21 20 26 20 27 31 36 42 41 50 46
REMARK H PARENT 46 51 46 52 36 59 39 60 39 61 38 63
ROOT
ATOM      1  C   LEU A   3      20.043  10.085  -6.473  1.00  0.00     0.243 C 
ATOM      2  O   LEU A   3      20.155   9.154  -5.627  1.00  0.00    -0.273 OA
ATOM      3  N   ILE A   4      20.579   9.941  -7.776  1.00  0.00    -0.342 N 
ATOM      4  H   UNL     1      20.497  10.739  -8.447  1.00  0.00     0.164 HD
ENDROOT
BRANCH   1   5
ATOM      5  CA  LEU A   3      19.325  11.350  -6.135  1.00  0.00     0.171 C 
BRANCH   5   6
ATOM      6  N   LEU A   3      18.071  11.013  -5.515  1.00  0.00    -0.342 N 
ATOM      7  C   ASN A   2      16.872  11.739  -5.741  1.00  0.00     0.243 C 
ATOM      8  O   ASN A   2      16.888  12.786  -6.446  1.00  0.00    -0.273 OA
ATOM      9  H   UNL     1      18.140  10.370  -4.701  1.00  0.00     0.164 HD
BRANCH   7  10
ATOM     10  CA  ASN A   2      15.622  11.284  -5.036  1.00  0.00     0.180 C 
BRANCH  10  11
ATOM     11  N   ASN A   2      14.441  11.729  -5.762  1.00  0.00    -0.342 N 
ATOM     12  C   SER A   1      13.912  13.045  -5.635  1.00  0.00     0.239 C 
ATOM     13  O   SER A   1      14.445  13.864  -4.837  1.00  0.00    -0.273 OA
ATOM     14  H   UNL     1      13.866  11.001  -6.235  1.00  0.00     0.164 HD
BRANCH  12  15
ATOM     15  CA  SER A   1      12.661  13.411  -6.391  1.00  0.00     0.167 C 
BRANCH  15  16
ATOM     16  N   SER A   1      12.477  14.864  -6.373  1.00  0.00    -0.318 NA
ATOM     17  H   UNL     1      13.180  15.315  -7.004  1.00  0.00     0.119 HD
ATOM     18  H   UNL     1      11.525  15.093  -6.740  1.00  0.00     0.119 HD
ENDBRANCH  15  16
BRANCH  15  19
ATOM     19  CB  SER A   1      12.688  12.882  -7.847  1.00  0.00     0.184 C 
BRANCH  19  20
ATOM     20  OG  SER A   1      11.435  13.049  -8.450  1.00  0.00    -0.394 OA
ATOM     21  H   UNL     1      11.442  13.939  -8.890  1.00  0.00     0.210 HD
ENDBRANCH  19  20
ENDBRANCH  15  19
ENDBRANCH  12  15
ENDBRANCH  10  11
BRANCH  10  22
ATOM     22  CB  ASN A   2      15.576   9.740  -4.902  1.00  0.00     0.134 C 
BRANCH  22  23
ATOM     23  CG  ASN A   2      14.398   9.290  -4.100  1.00  0.00     0.220 C 
ATOM     24  ND2 ASN A   2      13.284   8.659  -4.733  1.00  0.00    -0.370 N 
ATOM     25  OD1 ASN A   2      14.377   9.486  -2.855  1.00  0.00    -0.275 OA
ATOM     26  H   UNL     1      13.277   8.494  -5.764  1.00  0.00     0.159 HD
ATOM     27  H   UNL     1      12.459   8.358  -4.168  1.00  0.00     0.159 HD
ENDBRANCH  22  23
ENDBRANCH  10  22
ENDBRANCH   7  10
ENDBRANCH   5   6
BRANCH   5  28
ATOM     28  CB  LEU A   3      20.156  12.251  -5.213  1.00  0.00     0.038 C 
BRANCH  28  29
ATOM     29  CG  LEU A   3      20.415  11.679  -3.790  1.00  0.00    -0.015 C 
ATOM     30  CD1 LEU A   3      21.819  12.067  -3.319  1.00  0.00     0.007 C 
ATOM     31  CD2 LEU A   3      19.370  12.169  -2.777  1.00  0.00     0.007 C 
ENDBRANCH  28  29
ENDBRANCH   5  28
ENDBRANCH   1   5
BRANCH   3  32
ATOM     32  CA  ILE A   4      21.345   8.773  -8.167  1.00  0.00     0.174 C 
BRANCH  32  33
ATOM     33  C   ILE A   4      22.719   9.217  -8.536  1.00  0.00     0.243 C 
ATOM     34  N   ARG A   5      23.820   8.720  -7.790  1.00  0.00    -0.343 N 
ATOM     35  O   ILE A   4      22.895  10.046  -9.468  1.00  0.00    -0.273 OA
ATOM     36  H   UNL     1      23.660   8.030  -7.021  1.00  0.00     0.164 HD
BRANCH  34  37
ATOM     37  CA  ARG A   5      25.186   9.120  -8.071  1.00  0.00     0.171 C 
BRANCH  37  38
ATOM     38  C   ARG A   5      25.900   7.967  -8.685  1.00  0.00     0.243 C 
ATOM     39  N   ASN A   6      25.913   7.864 -10.102  1.00  0.00    -0.341 N 
ATOM     40  O   ARG A   5      26.448   7.086  -7.969  1.00  0.00    -0.273 OA
ATOM     41  H   UNL     1      25.488   8.647 -10.650  1.00  0.00     0.164 HD
BRANCH  39  42
ATOM     42  CA  ASN A   6      26.542   6.750 -10.804  1.00  0.00     0.201 C 
BRANCH  42  43
ATOM     43  C   ASN A   6      27.993   6.642 -10.416  1.00  0.00     0.326 C 
ATOM     44  O   ASN A   6      28.794   7.579 -10.677  1.00  0.00    -0.250 OA
BRANCH  43  45
ATOM     45  OXT ASN A   6      28.452   5.499  -9.769  1.00  0.00    -0.480 OA
ATOM     46  H   UNL     1      29.424   5.409  -9.500  1.00  0.00     0.296 HD
ENDBRANCH  43  45
ENDBRANCH  42  43
BRANCH  42  47
ATOM     47  CB  ASN A   6      26.424   6.947 -12.323  1.00  0.00     0.136 C 
BRANCH  47  48
ATOM     48  CG  ASN A   6      25.010   7.181 -12.773  1.00  0.00     0.220 C 
ATOM     49  ND2 ASN A   6      24.753   8.091 -13.833  1.00  0.00    -0.370 N 
ATOM     50  OD1 ASN A   6      24.053   6.558 -12.243  1.00  0.00    -0.275 OA
ATOM     51  H   UNL     1      23.775   8.259 -14.156  1.00  0.00     0.159 HD
ATOM     52  H   UNL     1      25.533   8.601 -14.306  1.00  0.00     0.159 HD
ENDBRANCH  47  48
ENDBRANCH  42  47
ENDBRANCH  39  42
ENDBRANCH  37  38
BRANCH  37  53
ATOM     53  CB  ARG A   5      25.861   9.602  -6.792  1.00  0.00     0.037 C 
BRANCH  53  54
ATOM     54  CG  ARG A   5      25.165  10.858  -6.269  1.00  0.00     0.024 C 
BRANCH  54  55
ATOM     55  CD  ARG A   5      25.839  11.391  -5.013  1.00  0.00     0.116 C 
BRANCH  55  56
ATOM     56  NE  ARG A   5      25.378  10.686  -3.820  1.00  0.00    -0.357 N 
ATOM     57  CZ  ARG A   5      25.469  11.281  -2.526  1.00  0.00     0.185 C 
ATOM     58  NH2 ARG A   5      26.107  12.546  -2.351  1.00  0.00    -0.370 N 
ATOM     59  H   UNL     1      24.894   9.763  -3.911  1.00  0.00     0.163 HD
ATOM     60  H   UNL     1      26.697  12.982  -3.093  1.00  0.00     0.159 HD
ATOM     61  H   UNL     1      26.080  13.024  -1.423  1.00  0.00     0.159 HD
BRANCH  57  62
ATOM     62  NH1 ARG A   5      24.954  10.672  -1.507  1.00  0.00    -0.270 NA
ATOM     63  H   UNL     1      24.995  11.077  -0.545  1.00  0.00     0.191 HD
ENDBRANCH  57  62
ENDBRANCH  55  56
ENDBRANCH  54  55
ENDBRANCH  53  54
ENDBRANCH  37  53
ENDBRANCH  34  37
ENDBRANCH  32  33
BRANCH  32  64
ATOM     64  CB  ILE A   4      20.628   7.977  -9.284  1.00  0.00     0.018 C 
ATOM     65  CG1 ILE A   4      20.218   8.831 -10.500  1.00  0.00     0.010 C 
BRANCH  64  66
ATOM     66  CG2 ILE A   4      21.454   6.763  -9.763  1.00  0.00     0.002 C 
ATOM     67  CD1 ILE A   4      21.770   5.775  -8.641  1.00  0.00     0.004 C 
ENDBRANCH  64  66
ENDBRANCH  32  64
ENDBRANCH   3  32
TORSDOF 28
