REMARK SMILES CC(C)C[C@H](NC(=O)[C@H](Cc1c[nH]cn1)NC(=O)[C@H](Cc1ccccc1)NC(=O)[C@@H](N)CO)C(=O)N[C@@H](CCCNC(=N)N)C(=O)N[C@@H](CO)C(=O)O
REMARK SMILES IDX 7 1 8 2 6 3 9 5 16 6 17 7 18 8 19 10 27 11 28 12 29 13 30 15
REMARK SMILES IDX 31 16 32 19 33 20 20 22 21 23 22 24 26 25 23 26 25 27 24 28
REMARK SMILES IDX 10 29 11 30 15 31 12 32 14 33 13 34 5 36 34 37 36 38 35 39
REMARK SMILES IDX 37 41 45 42 47 43 46 44 48 46 51 47 52 48 53 49 49 51 50 52
REMARK SMILES IDX 38 54 39 55 40 56 41 57 42 58 44 59 43 63 4 65 2 66 1 67
REMARK SMILES IDX 3 68
REMARK H PARENT 6 4 16 9 27 14 31 17 31 18 33 21 13 35 36 40 47 45 53 50 50 53
REMARK H PARENT 41 60 44 61 44 62 43 64
ROOT
ATOM      1  C   HIS A   3      20.051  10.095  -6.460  1.00  0.00     0.243 C 
ATOM      2  O   HIS A   3      20.168   9.182  -5.596  1.00  0.00    -0.273 OA
ATOM      3  N   LEU A   4      20.563   9.921  -7.771  1.00  0.00    -0.342 N 
ATOM      4  H   UNL     1      20.396  10.659  -8.494  1.00  0.00     0.164 HD
ENDROOT
BRANCH   1   5
ATOM      5  CA  HIS A   3      19.347  11.367  -6.131  1.00  0.00     0.177 C 
BRANCH   5   6
ATOM      6  N   HIS A   3      18.089  11.045  -5.508  1.00  0.00    -0.342 N 
ATOM      7  C   PHE A   2      16.887  11.749  -5.774  1.00  0.00     0.243 C 
ATOM      8  O   PHE A   2      16.903  12.793  -6.483  1.00  0.00    -0.273 OA
ATOM      9  H   UNL     1      18.164  10.484  -4.634  1.00  0.00     0.164 HD
BRANCH   7  10
ATOM     10  CA  PHE A   2      15.651  11.313  -5.060  1.00  0.00     0.175 C 
BRANCH  10  11
ATOM     11  N   PHE A   2      14.453  11.740  -5.770  1.00  0.00    -0.343 N 
ATOM     12  C   SER A   1      13.914  13.050  -5.636  1.00  0.00     0.239 C 
ATOM     13  O   SER A   1      14.449  13.868  -4.838  1.00  0.00    -0.273 OA
ATOM     14  H   UNL     1      13.866  11.000  -6.212  1.00  0.00     0.164 HD
BRANCH  12  15
ATOM     15  CA  SER A   1      12.654  13.411  -6.385  1.00  0.00     0.167 C 
BRANCH  15  16
ATOM     16  N   SER A   1      12.468  14.864  -6.382  1.00  0.00    -0.318 NA
ATOM     17  H   UNL     1      12.337  15.180  -5.393  1.00  0.00     0.119 HD
ATOM     18  H   UNL     1      11.564  15.088  -6.857  1.00  0.00     0.119 HD
ENDBRANCH  15  16
BRANCH  15  19
ATOM     19  CB  SER A   1      12.696  12.894  -7.842  1.00  0.00     0.184 C 
BRANCH  19  20
ATOM     20  OG  SER A   1      11.439  13.036  -8.447  1.00  0.00    -0.394 OA
ATOM     21  H   UNL     1      11.454  13.890  -8.953  1.00  0.00     0.210 HD
ENDBRANCH  19  20
ENDBRANCH  15  19
ENDBRANCH  12  15
ENDBRANCH  10  11
BRANCH  10  22
ATOM     22  CB  PHE A   2      15.613   9.774  -4.890  1.00  0.00     0.070 C 
BRANCH  22  23
ATOM     23  CG  PHE A   2      14.443   9.290  -4.091  1.00  0.00    -0.045 A 
ATOM     24  CD1 PHE A   2      13.903  10.047  -3.033  1.00  0.00     0.004 A 
ATOM     25  CD2 PHE A   2      13.968   7.990  -4.310  1.00  0.00     0.004 A 
ATOM     26  CE1 PHE A   2      12.869   9.536  -2.260  1.00  0.00     0.000 A 
ATOM     27  CE2 PHE A   2      12.939   7.477  -3.521  1.00  0.00     0.000 A 
ATOM     28  CZ  PHE A   2      12.386   8.252  -2.502  1.00  0.00     0.000 A 
ENDBRANCH  22  23
ENDBRANCH  10  22
ENDBRANCH   7  10
ENDBRANCH   5   6
BRANCH   5  29
ATOM     29  CB  HIS A   3      20.179  12.263  -5.202  1.00  0.00     0.093 C 
BRANCH  29  30
ATOM     30  CG  HIS A   3      20.417  11.676  -3.834  1.00  0.00     0.061 A 
ATOM     31  ND1 HIS A   3      19.571  11.819  -2.794  1.00  0.00    -0.242 NA
ATOM     32  CD2 HIS A   3      21.499  10.912  -3.456  1.00  0.00     0.107 A 
ATOM     33  CE1 HIS A   3      20.164  11.129  -1.797  1.00  0.00     0.196 A 
ATOM     34  NE2 HIS A   3      21.331  10.570  -2.171  1.00  0.00    -0.351 N 
ATOM     35  H   UNL     1      21.967   9.987  -1.583  1.00  0.00     0.167 HD
ENDBRANCH  29  30
ENDBRANCH   5  29
ENDBRANCH   1   5
BRANCH   3  36
ATOM     36  CA  LEU A   4      21.348   8.760  -8.139  1.00  0.00     0.171 C 
BRANCH  36  37
ATOM     37  C   LEU A   4      22.713   9.217  -8.520  1.00  0.00     0.243 C 
ATOM     38  N   ARG A   5      23.823   8.720  -7.787  1.00  0.00    -0.343 N 
ATOM     39  O   LEU A   4      22.876  10.033  -9.467  1.00  0.00    -0.273 OA
ATOM     40  H   UNL     1      23.668   8.031  -7.016  1.00  0.00     0.164 HD
BRANCH  38  41
ATOM     41  CA  ARG A   5      25.186   9.120  -8.078  1.00  0.00     0.171 C 
BRANCH  41  42
ATOM     42  C   ARG A   5      25.898   7.964  -8.692  1.00  0.00     0.243 C 
ATOM     43  N   SER A   6      25.877   7.838 -10.109  1.00  0.00    -0.339 N 
ATOM     44  O   ARG A   5      26.459   7.092  -7.975  1.00  0.00    -0.273 OA
ATOM     45  H   UNL     1      25.314   8.533 -10.652  1.00  0.00     0.164 HD
BRANCH  43  46
ATOM     46  CA  SER A   6      26.546   6.752 -10.818  1.00  0.00     0.218 C 
BRANCH  46  47
ATOM     47  C   SER A   6      27.995   6.652 -10.416  1.00  0.00     0.328 C 
ATOM     48  O   SER A   6      28.796   7.588 -10.675  1.00  0.00    -0.250 OA
BRANCH  47  49
ATOM     49  OXT SER A   6      28.451   5.515  -9.756  1.00  0.00    -0.480 OA
ATOM     50  H   UNL     1      29.421   5.430  -9.477  1.00  0.00     0.296 HD
ENDBRANCH  47  49
ENDBRANCH  46  47
BRANCH  46  51
ATOM     51  CB  SER A   6      26.410   6.948 -12.335  1.00  0.00     0.193 C 
BRANCH  51  52
ATOM     52  OG  SER A   6      27.021   8.140 -12.759  1.00  0.00    -0.394 OA
ATOM     53  H   UNL     1      26.315   8.837 -12.786  1.00  0.00     0.210 HD
ENDBRANCH  51  52
ENDBRANCH  46  51
ENDBRANCH  43  46
ENDBRANCH  41  42
BRANCH  41  54
ATOM     54  CB  ARG A   5      25.864   9.605  -6.800  1.00  0.00     0.037 C 
BRANCH  54  55
ATOM     55  CG  ARG A   5      25.167  10.859  -6.273  1.00  0.00     0.024 C 
BRANCH  55  56
ATOM     56  CD  ARG A   5      25.840  11.390  -5.016  1.00  0.00     0.116 C 
BRANCH  56  57
ATOM     57  NE  ARG A   5      25.378  10.684  -3.824  1.00  0.00    -0.357 N 
ATOM     58  CZ  ARG A   5      25.468  11.279  -2.528  1.00  0.00     0.185 C 
ATOM     59  NH2 ARG A   5      26.103  12.542  -2.351  1.00  0.00    -0.370 N 
ATOM     60  H   UNL     1      24.907   9.755  -3.922  1.00  0.00     0.163 HD
ATOM     61  H   UNL     1      26.080  13.007  -1.416  1.00  0.00     0.159 HD
ATOM     62  H   UNL     1      26.688  12.985  -3.092  1.00  0.00     0.159 HD
BRANCH  58  63
ATOM     63  NH1 ARG A   5      24.962  10.676  -1.500  1.00  0.00    -0.270 NA
ATOM     64  H   UNL     1      24.487   9.750  -1.583  1.00  0.00     0.191 HD
ENDBRANCH  58  63
ENDBRANCH  56  57
ENDBRANCH  55  56
ENDBRANCH  54  55
ENDBRANCH  41  54
ENDBRANCH  38  41
ENDBRANCH  36  37
BRANCH  36  65
ATOM     65  CB  LEU A   4      20.656   7.999  -9.272  1.00  0.00     0.038 C 
BRANCH  65  66
ATOM     66  CG  LEU A   4      21.449   6.771  -9.770  1.00  0.00    -0.015 C 
ATOM     67  CD1 LEU A   4      21.763   5.779  -8.640  1.00  0.00     0.007 C 
ATOM     68  CD2 LEU A   4      20.659   6.066 -10.876  1.00  0.00     0.007 C 
ENDBRANCH  65  66
ENDBRANCH  36  65
ENDBRANCH   3  36
TORSDOF 28
