REMARK SMILES CC(C)C[C@H](NC(=O)[C@H](Cc1ccccc1)NC(=O)[C@@H](N)CO)C(=O)N[C@@H](CCCNC(=N)N)C(=O)N[C@@H](CCCNC(=N)N)C(=O)N[C@@H](CC(N)=O)C(=O)O
REMARK SMILES IDX 24 1 26 2 5 3 6 4 7 5 9 6 17 7 18 8 20 9 21 10 22 16 23 17
REMARK SMILES IDX 19 22 10 27 11 28 12 29 16 30 13 31 15 32 14 33 8 34 4 39
REMARK SMILES IDX 2 40 1 41 3 42 25 43 27 46 35 47 37 48 36 49 38 52 46 53
REMARK SMILES IDX 48 54 47 55 49 58 54 59 55 60 56 63 50 68 51 69 52 70 53 71
REMARK SMILES IDX 39 80 40 81 41 82 42 83 43 84 45 85 44 88 28 98 29 99 30 100
REMARK SMILES IDX 31 101 32 102 34 103 33 106
REMARK H PARENT 21 12 21 14 23 20 17 25 6 37 56 66 52 74 52 76 48 78 42 86
REMARK H PARENT 44 90 45 92 45 94 37 96 31 104 33 108 34 110 34 112 26 114
ROOT
ATOM      1  C   LEU A   3       0.550   0.073  -1.266  1.00  0.00     0.243 C 
ATOM      2  N   ARG A   4      -0.655  -0.676  -1.479  1.00  0.00    -0.343 N 
ENDROOT
BRANCH   1   3
ATOM      3  CA  LEU A   3       1.318  -0.072   0.030  1.00  0.00     0.171 C 
BRANCH   3   4
ATOM      4  N   LEU A   3       2.708  -0.478  -0.217  1.00  0.00    -0.343 N 
ATOM      5  C   PHE A   2       3.545  -1.013   0.825  1.00  0.00     0.243 C 
BRANCH   5   6
ATOM      6  CA  PHE A   2       4.935  -1.488   0.487  1.00  0.00     0.175 C 
BRANCH   6   7
ATOM      7  N   PHE A   2       5.793  -0.348   0.141  1.00  0.00    -0.343 N 
ATOM      8  C   SER A   1       6.082   0.749   1.024  1.00  0.00     0.239 C 
BRANCH   8   9
ATOM      9  CA  SER A   1       6.939   1.894   0.552  1.00  0.00     0.167 C 
BRANCH   9  10
ATOM     10  N   SER A   1       6.442   3.154   1.105  1.00  0.00    -0.318 NA
ATOM     11 WAT  SER A   1       6.512   3.040   4.102  1.00  0.00     0.000 W 
BRANCH  10  12
ATOM     12  H   UNL     1       7.024   3.933   0.731  1.00  0.00     0.119 HD
ATOM     13 WAT  UNL     1       8.142   5.428   0.012  1.00  0.00     0.000 W 
ENDBRANCH  10  12
BRANCH  10  14
ATOM     14  H   UNL     1       5.475   3.316   0.740  1.00  0.00     0.119 HD
ATOM     15 WAT  UNL     1       3.627   3.627   0.043  1.00  0.00     0.000 W 
ENDBRANCH  10  14
ENDBRANCH   9  10
BRANCH   9  16
ATOM     16  CB  SER A   1       8.401   1.675   0.970  1.00  0.00     0.184 C 
BRANCH  16  17
ATOM     17  OG  SER A   1       8.907   0.493   0.415  1.00  0.00    -0.394 OA
ATOM     18 WAT  SER A   1       6.761  -1.590   0.643  1.00  0.00     0.000 W 
ATOM     19 WAT  SER A   1      11.601   0.013   1.645  1.00  0.00     0.000 W 
BRANCH  17  20
ATOM     20  H   UNL     1       9.050   0.665  -0.553  1.00  0.00     0.210 HD
ATOM     21 WAT  UNL     1       9.339   1.010  -2.501  1.00  0.00     0.000 W 
ENDBRANCH  17  20
ENDBRANCH  16  17
ENDBRANCH   9  16
ENDBRANCH   8   9
BRANCH   8  22
ATOM     22  O   SER A   1       5.658   0.740   2.213  1.00  0.00    -0.273 OA
ATOM     23 WAT  SER A   1       3.949  -1.528   3.179  1.00  0.00     0.000 W 
ATOM     24 WAT  SER A   1       6.359   2.988   4.072  1.00  0.00     0.000 W 
ENDBRANCH   8  22
BRANCH   7  25
ATOM     25  H   UNL     1       6.207  -0.333  -0.820  1.00  0.00     0.164 HD
ATOM     26 WAT  UNL     1       6.997  -0.304  -2.657  1.00  0.00     0.000 W 
ENDBRANCH   7  25
ENDBRANCH   6   7
BRANCH   6  27
ATOM     27  CB  PHE A   2       5.564  -2.354   1.601  1.00  0.00     0.070 C 
BRANCH  27  28
ATOM     28  CG  PHE A   2       6.888  -2.930   1.158  1.00  0.00    -0.045 A 
ATOM     29  CD1 PHE A   2       8.093  -2.320   1.545  1.00  0.00     0.004 A 
ATOM     30  CD2 PHE A   2       6.924  -4.039   0.299  1.00  0.00     0.004 A 
ATOM     31  CE1 PHE A   2       9.316  -2.816   1.081  1.00  0.00     0.000 A 
ATOM     32  CE2 PHE A   2       8.149  -4.536  -0.158  1.00  0.00     0.000 A 
ATOM     33  CZ  PHE A   2       9.343  -3.919   0.224  1.00  0.00     0.000 A 
ENDBRANCH  27  28
ENDBRANCH   6  27
ENDBRANCH   5   6
BRANCH   5  34
ATOM     34  O   PHE A   2       3.125  -1.055   2.013  1.00  0.00    -0.273 OA
ATOM     35 WAT  PHE A   2       0.354  -0.105   2.660  1.00  0.00     0.000 W 
ATOM     36 WAT  PHE A   2       4.897  -2.105   4.194  1.00  0.00     0.000 W 
ENDBRANCH   5  34
BRANCH   4  37
ATOM     37  H   UNL     1       3.093  -0.451  -1.193  1.00  0.00     0.164 HD
ATOM     38 WAT  UNL     1       3.827  -0.399  -3.053  1.00  0.00     0.000 W 
ENDBRANCH   4  37
ENDBRANCH   3   4
BRANCH   3  39
ATOM     39  CB  LEU A   3       1.208   1.217   0.898  1.00  0.00     0.038 C 
BRANCH  39  40
ATOM     40  CG  LEU A   3       2.394   2.214   0.836  1.00  0.00    -0.015 C 
ATOM     41  CD1 LEU A   3       2.634   2.778  -0.572  1.00  0.00     0.007 C 
ATOM     42  CD2 LEU A   3       2.159   3.365   1.823  1.00  0.00     0.007 C 
ENDBRANCH  39  40
ENDBRANCH   3  39
ENDBRANCH   1   3
BRANCH   1  43
ATOM     43  O   LEU A   3       0.942   0.891  -2.144  1.00  0.00    -0.273 OA
ATOM     44 WAT  LEU A   3      -0.581   1.177  -4.713  1.00  0.00     0.000 W 
ATOM     45 WAT  LEU A   3       3.396   2.548  -1.663  1.00  0.00     0.000 W 
ENDBRANCH   1  43
BRANCH   2  46
ATOM     46  CA  ARG A   4      -1.762  -0.137  -2.278  1.00  0.00     0.171 C 
BRANCH  46  47
ATOM     47  C   ARG A   4      -3.074  -0.658  -1.730  1.00  0.00     0.243 C 
ATOM     48  N   ARG A   5      -3.429  -0.366  -0.369  1.00  0.00    -0.343 N 
BRANCH  47  49
ATOM     49  O   ARG A   4      -3.851  -1.339  -2.453  1.00  0.00    -0.273 OA
ATOM     50 WAT  ARG A   4      -6.442  -2.352  -1.330  1.00  0.00     0.000 W 
ATOM     51 WAT  ARG A   4      -3.110  -1.944  -5.296  1.00  0.00     0.000 W 
ENDBRANCH  47  49
BRANCH  48  52
ATOM     52  CA  ARG A   5      -4.750  -0.678   0.186  1.00  0.00     0.171 C 
BRANCH  52  53
ATOM     53  C   ARG A   5      -4.994   0.179   1.405  1.00  0.00     0.243 C 
ATOM     54  N   ASN A   6      -5.634   1.454   1.265  1.00  0.00    -0.341 N 
BRANCH  53  55
ATOM     55  O   ARG A   5      -4.566  -0.189   2.534  1.00  0.00    -0.273 OA
ATOM     56 WAT  ARG A   5      -5.053   1.517   4.952  1.00  0.00     0.000 W 
ATOM     57 WAT  ARG A   5      -3.063  -2.772   2.798  1.00  0.00     0.000 W 
ENDBRANCH  53  55
BRANCH  54  58
ATOM     58  CA  ASN A   6      -5.979   2.290   2.418  1.00  0.00     0.201 C 
BRANCH  58  59
ATOM     59  C   ASN A   6      -7.314   1.864   2.960  1.00  0.00     0.326 C 
BRANCH  59  60
ATOM     60  O   ASN A   6      -8.323   1.827   2.206  1.00  0.00    -0.250 OA
ATOM     61 WAT  ASN A   6     -10.983   0.974   3.301  1.00  0.00     0.000 W 
ATOM     62 WAT  ASN A   6      -8.067   2.592  -0.684  1.00  0.00     0.000 W 
ENDBRANCH  59  60
BRANCH  59  63
ATOM     63  OXT ASN A   6      -7.434   1.505   4.299  1.00  0.00    -0.480 OA
ATOM     64 WAT  ASN A   6      -6.799   4.025   5.798  1.00  0.00     0.000 W 
ATOM     65 WAT  ASN A   6      -5.657  -0.896   4.580  1.00  0.00     0.000 W 
BRANCH  63  66
ATOM     66  H   UNL     1      -8.323   1.203   4.684  1.00  0.00     0.296 HD
ATOM     67 WAT  UNL     1     -10.076   0.609   5.442  1.00  0.00     0.000 W 
ENDBRANCH  63  66
ENDBRANCH  59  63
ENDBRANCH  58  59
BRANCH  58  68
ATOM     68  CB  ASN A   6      -5.991   3.774   2.001  1.00  0.00     0.136 C 
BRANCH  68  69
ATOM     69  CG  ASN A   6      -6.283   4.711   3.144  1.00  0.00     0.220 C 
ATOM     70  ND2 ASN A   6      -7.019   5.913   2.917  1.00  0.00    -0.370 N 
BRANCH  69  71
ATOM     71  OD1 ASN A   6      -5.841   4.472   4.298  1.00  0.00    -0.275 OA
ATOM     72 WAT  ASN A   6      -6.438   6.355   6.555  1.00  0.00     0.000 W 
ATOM     73 WAT  ASN A   6      -4.189   2.016   4.791  1.00  0.00     0.000 W 
ENDBRANCH  69  71
BRANCH  70  74
ATOM     74  H   UNL     1      -7.344   6.175   1.960  1.00  0.00     0.159 HD
ATOM     75 WAT  UNL     1      -7.968   6.677   0.127  1.00  0.00     0.000 W 
ENDBRANCH  70  74
BRANCH  70  76
ATOM     76  H   UNL     1      -7.229   6.557   3.711  1.00  0.00     0.159 HD
ATOM     77 WAT  UNL     1      -7.632   7.792   5.232  1.00  0.00     0.000 W 
ENDBRANCH  70  76
ENDBRANCH  68  69
ENDBRANCH  58  68
ENDBRANCH  54  58
BRANCH  54  78
ATOM     78  H   UNL     1      -5.973   1.737   0.316  1.00  0.00     0.164 HD
ATOM     79 WAT  UNL     1      -6.621   2.279  -1.497  1.00  0.00     0.000 W 
ENDBRANCH  54  78
ENDBRANCH  52  53
BRANCH  52  80
ATOM     80  CB  ARG A   5      -4.853  -2.185   0.508  1.00  0.00     0.037 C 
BRANCH  80  81
ATOM     81  CG  ARG A   5      -6.270  -2.585   0.956  1.00  0.00     0.024 C 
BRANCH  81  82
ATOM     82  CD  ARG A   5      -6.415  -4.106   1.096  1.00  0.00     0.116 C 
BRANCH  82  83
ATOM     83  NE  ARG A   5      -5.479  -4.646   2.077  1.00  0.00    -0.357 N 
ATOM     84  CZ  ARG A   5      -5.685  -4.558   3.494  1.00  0.00     0.185 C 
ATOM     85  NH2 ARG A   5      -4.803  -5.252   4.383  1.00  0.00    -0.370 N 
BRANCH  83  86
ATOM     86  H   UNL     1      -4.698  -5.247   1.720  1.00  0.00     0.163 HD
ATOM     87 WAT  UNL     1      -3.206  -6.392   1.040  1.00  0.00     0.000 W 
ENDBRANCH  83  86
BRANCH  84  88
ATOM     88  NH1 ARG A   5      -6.680  -3.876   3.969  1.00  0.00    -0.270 NA
ATOM     89 WAT  ARG A   5      -8.794  -2.297   2.543  1.00  0.00     0.000 W 
BRANCH  88  90
ATOM     90  H   UNL     1      -6.856  -3.806   4.995  1.00  0.00     0.191 HD
ATOM     91 WAT  UNL     1      -7.193  -3.673   6.962  1.00  0.00     0.000 W 
ENDBRANCH  88  90
ENDBRANCH  84  88
BRANCH  85  92
ATOM     92  H   UNL     1      -3.974  -5.764   4.008  1.00  0.00     0.159 HD
ATOM     93 WAT  UNL     1      -2.386  -6.745   3.289  1.00  0.00     0.000 W 
ENDBRANCH  85  92
BRANCH  85  94
ATOM     94  H   UNL     1      -4.989  -5.281   5.410  1.00  0.00     0.159 HD
ATOM     95 WAT  UNL     1      -5.346  -5.335   7.377  1.00  0.00     0.000 W 
ENDBRANCH  85  94
ENDBRANCH  82  83
ENDBRANCH  81  82
ENDBRANCH  80  81
ENDBRANCH  52  80
ENDBRANCH  48  52
BRANCH  48  96
ATOM     96  H   UNL     1      -2.730   0.143   0.221  1.00  0.00     0.164 HD
ATOM     97 WAT  UNL     1      -1.395   1.115   1.349  1.00  0.00     0.000 W 
ENDBRANCH  48  96
ENDBRANCH  46  47
BRANCH  46  98
ATOM     98  CB  ARG A   4      -1.544  -0.463  -3.774  1.00  0.00     0.037 C 
BRANCH  98  99
ATOM     99  CG  ARG A   4      -2.448   0.388  -4.681  1.00  0.00     0.024 C 
BRANCH  99 100
ATOM    100  CD  ARG A   4      -2.279   0.018  -6.159  1.00  0.00     0.116 C 
BRANCH 100 101
ATOM    101  NE  ARG A   4      -0.956   0.395  -6.656  1.00  0.00    -0.357 N 
ATOM    102  CZ  ARG A   4      -0.600   1.746  -6.984  1.00  0.00     0.185 C 
ATOM    103  NH2 ARG A   4       0.680   2.017  -7.562  1.00  0.00    -0.370 N 
BRANCH 101 104
ATOM    104  H   UNL     1      -0.277  -0.369  -6.865  1.00  0.00     0.163 HD
ATOM    105 WAT  UNL     1       1.025  -1.833  -7.266  1.00  0.00     0.000 W 
ENDBRANCH 101 104
BRANCH 102 106
ATOM    106  NH1 ARG A   4      -1.442   2.714  -6.787  1.00  0.00    -0.270 NA
ATOM    107 WAT  ARG A   4      -4.205   2.667  -5.621  1.00  0.00     0.000 W 
BRANCH 106 108
ATOM    108  H   UNL     1      -1.215   3.701  -7.040  1.00  0.00     0.191 HD
ATOM    109 WAT  UNL     1      -0.782   5.592  -7.526  1.00  0.00     0.000 W 
ENDBRANCH 106 108
ENDBRANCH 102 106
BRANCH 103 110
ATOM    110  H   UNL     1       1.369   1.245  -7.699  1.00  0.00     0.159 HD
ATOM    111 WAT  UNL     1       2.689  -0.234  -7.961  1.00  0.00     0.000 W 
ENDBRANCH 103 110
BRANCH 103 112
ATOM    112  H   UNL     1       0.945   2.989  -7.834  1.00  0.00     0.159 HD
ATOM    113 WAT  UNL     1       1.452   4.852  -8.356  1.00  0.00     0.000 W 
ENDBRANCH 103 112
ENDBRANCH 100 101
ENDBRANCH  99 100
ENDBRANCH  98  99
ENDBRANCH  46  98
ENDBRANCH   2  46
BRANCH   2 114
ATOM    114  H   UNL     1      -0.804  -1.557  -0.930  1.00  0.00     0.164 HD
ATOM    115 WAT  UNL     1      -1.088  -3.236   0.118  1.00  0.00     0.000 W 
ENDBRANCH   2 114
TORSDOF 57
