REMARK SMILES CC(C)C[C@H](NC(=O)[C@H](Cc1ccccc1)NC(=O)[C@H](C)N)C(=O)N[C@@H](C)C(=O)N[C@@H](CCCNC(=N)N)C(=O)N[C@@H](CC(N)=O)C(=O)O
REMARK SMILES IDX 26 1 27 2 25 3 23 4 24 5 5 7 6 8 7 9 8 10 9 12 17 13 18 14
REMARK SMILES IDX 19 15 20 17 21 18 22 19 10 22 11 23 12 24 16 25 13 26 15 27
REMARK SMILES IDX 14 28 4 29 2 30 1 31 3 32 28 33 30 34 29 35 31 37 39 38
REMARK SMILES IDX 41 39 40 40 42 42 47 43 48 44 49 45 43 47 44 48 45 49 46 50
REMARK SMILES IDX 32 53 33 54 34 55 35 56 36 57 38 58 37 62
REMARK H PARENT 25 6 6 11 17 16 22 20 22 21 30 36 41 41 49 46 45 51 45 52
REMARK H PARENT 35 59 38 60 38 61 37 63
ROOT
ATOM      1  CA  ALA A   4      21.343   8.746  -8.158  1.00  0.00     0.168 C 
ATOM      2  CB  ALA A   4      20.665   8.005  -9.301  1.00  0.00     0.041 C 
ENDROOT
BRANCH   1   3
ATOM      3  N   ALA A   4      20.564   9.911  -7.787  1.00  0.00    -0.343 N 
ATOM      4  C   LEU A   3      20.054  10.081  -6.476  1.00  0.00     0.243 C 
ATOM      5  O   LEU A   3      20.168   9.157  -5.623  1.00  0.00    -0.273 OA
ATOM      6  H   UNL     1      20.402  10.653  -8.506  1.00  0.00     0.164 HD
BRANCH   4   7
ATOM      7  CA  LEU A   3      19.341  11.351  -6.146  1.00  0.00     0.171 C 
BRANCH   7   8
ATOM      8  N   LEU A   3      18.083  11.019  -5.537  1.00  0.00    -0.343 N 
ATOM      9  C   PHE A   2      16.889  11.746  -5.777  1.00  0.00     0.243 C 
ATOM     10  O   PHE A   2      16.911  12.797  -6.474  1.00  0.00    -0.273 OA
ATOM     11  H   UNL     1      18.154  10.385  -4.717  1.00  0.00     0.164 HD
BRANCH   9  12
ATOM     12  CA  PHE A   2      15.649  11.315  -5.066  1.00  0.00     0.175 C 
BRANCH  12  13
ATOM     13  N   PHE A   2      14.464  11.748  -5.793  1.00  0.00    -0.343 N 
ATOM     14  C   ALA A   1      13.906  13.048  -5.628  1.00  0.00     0.237 C 
ATOM     15  O   ALA A   1      14.438  13.860  -4.821  1.00  0.00    -0.273 OA
ATOM     16  H   UNL     1      14.002  11.062  -6.429  1.00  0.00     0.164 HD
BRANCH  14  17
ATOM     17  CA  ALA A   1      12.651  13.422  -6.377  1.00  0.00     0.138 C 
ATOM     18  CB  ALA A   1      12.685  12.892  -7.822  1.00  0.00     0.035 C 
BRANCH  17  19
ATOM     19  N   ALA A   1      12.484  14.875  -6.391  1.00  0.00    -0.320 NA
ATOM     20  H   UNL     1      11.593  15.105  -6.889  1.00  0.00     0.119 HD
ATOM     21  H   UNL     1      12.336  15.201  -5.407  1.00  0.00     0.119 HD
ENDBRANCH  17  19
ENDBRANCH  14  17
ENDBRANCH  12  13
BRANCH  12  22
ATOM     22  CB  PHE A   2      15.601   9.777  -4.891  1.00  0.00     0.070 C 
BRANCH  22  23
ATOM     23  CG  PHE A   2      14.430   9.296  -4.098  1.00  0.00    -0.045 A 
ATOM     24  CD1 PHE A   2      13.896  10.050  -3.036  1.00  0.00     0.004 A 
ATOM     25  CD2 PHE A   2      13.962   7.993  -4.312  1.00  0.00     0.004 A 
ATOM     26  CE1 PHE A   2      12.867   9.536  -2.259  1.00  0.00     0.000 A 
ATOM     27  CE2 PHE A   2      12.938   7.477  -3.519  1.00  0.00     0.000 A 
ATOM     28  CZ  PHE A   2      12.386   8.252  -2.499  1.00  0.00     0.000 A 
ENDBRANCH  22  23
ENDBRANCH  12  22
ENDBRANCH   9  12
ENDBRANCH   7   8
BRANCH   7  29
ATOM     29  CB  LEU A   3      20.165  12.251  -5.216  1.00  0.00     0.038 C 
BRANCH  29  30
ATOM     30  CG  LEU A   3      20.417  11.679  -3.791  1.00  0.00    -0.015 C 
ATOM     31  CD1 LEU A   3      21.819  12.066  -3.316  1.00  0.00     0.007 C 
ATOM     32  CD2 LEU A   3      19.369  12.170  -2.781  1.00  0.00     0.007 C 
ENDBRANCH  29  30
ENDBRANCH   7  29
ENDBRANCH   4   7
ENDBRANCH   1   3
BRANCH   1  33
ATOM     33  C   ALA A   4      22.711   9.197  -8.534  1.00  0.00     0.242 C 
ATOM     34  N   ARG A   5      23.817   8.706  -7.791  1.00  0.00    -0.343 N 
ATOM     35  O   ALA A   4      22.877  10.026  -9.470  1.00  0.00    -0.273 OA
ATOM     36  H   UNL     1      23.662   7.985  -7.050  1.00  0.00     0.164 HD
BRANCH  34  37
ATOM     37  CA  ARG A   5      25.181   9.117  -8.072  1.00  0.00     0.171 C 
BRANCH  37  38
ATOM     38  C   ARG A   5      25.902   7.968  -8.686  1.00  0.00     0.243 C 
ATOM     39  N   ASN A   6      25.916   7.866 -10.103  1.00  0.00    -0.341 N 
ATOM     40  O   ARG A   5      26.450   7.087  -7.970  1.00  0.00    -0.273 OA
ATOM     41  H   UNL     1      25.496   8.651 -10.651  1.00  0.00     0.164 HD
BRANCH  39  42
ATOM     42  CA  ASN A   6      26.543   6.751 -10.804  1.00  0.00     0.201 C 
BRANCH  42  43
ATOM     43  C   ASN A   6      27.994   6.642 -10.417  1.00  0.00     0.326 C 
ATOM     44  O   ASN A   6      28.795   7.579 -10.677  1.00  0.00    -0.250 OA
BRANCH  43  45
ATOM     45  OXT ASN A   6      28.453   5.497  -9.772  1.00  0.00    -0.480 OA
ATOM     46  H   UNL     1      29.426   5.407  -9.504  1.00  0.00     0.296 HD
ENDBRANCH  43  45
ENDBRANCH  42  43
BRANCH  42  47
ATOM     47  CB  ASN A   6      26.424   6.946 -12.323  1.00  0.00     0.136 C 
BRANCH  47  48
ATOM     48  CG  ASN A   6      25.009   7.181 -12.772  1.00  0.00     0.220 C 
ATOM     49  ND2 ASN A   6      24.753   8.089 -13.834  1.00  0.00    -0.370 N 
ATOM     50  OD1 ASN A   6      24.051   6.563 -12.238  1.00  0.00    -0.275 OA
ATOM     51  H   UNL     1      25.533   8.595 -14.309  1.00  0.00     0.159 HD
ATOM     52  H   UNL     1      23.775   8.258 -14.156  1.00  0.00     0.159 HD
ENDBRANCH  47  48
ENDBRANCH  42  47
ENDBRANCH  39  42
ENDBRANCH  37  38
BRANCH  37  53
ATOM     53  CB  ARG A   5      25.856   9.600  -6.792  1.00  0.00     0.037 C 
BRANCH  53  54
ATOM     54  CG  ARG A   5      25.162  10.857  -6.270  1.00  0.00     0.024 C 
BRANCH  54  55
ATOM     55  CD  ARG A   5      25.838  11.390  -5.014  1.00  0.00     0.116 C 
BRANCH  55  56
ATOM     56  NE  ARG A   5      25.377  10.686  -3.820  1.00  0.00    -0.357 N 
ATOM     57  CZ  ARG A   5      25.469  11.281  -2.527  1.00  0.00     0.185 C 
ATOM     58  NH2 ARG A   5      26.107  12.546  -2.352  1.00  0.00    -0.370 N 
ATOM     59  H   UNL     1      24.894   9.763  -3.911  1.00  0.00     0.163 HD
ATOM     60  H   UNL     1      26.696  12.982  -3.094  1.00  0.00     0.159 HD
ATOM     61  H   UNL     1      26.080  13.024  -1.424  1.00  0.00     0.159 HD
BRANCH  57  62
ATOM     62  NH1 ARG A   5      24.955  10.672  -1.507  1.00  0.00    -0.270 NA
ATOM     63  H   UNL     1      24.995  11.077  -0.545  1.00  0.00     0.191 HD
ENDBRANCH  57  62
ENDBRANCH  55  56
ENDBRANCH  54  55
ENDBRANCH  53  54
ENDBRANCH  37  53
ENDBRANCH  34  37
ENDBRANCH   1  33
TORSDOF 24
