REMARK SMILES CC(C)C[C@H](NC(=O)[C@H](Cc1ccccc1)NC(=O)[C@H](CC(N)=O)NC(=O)[C@@H](N)CO)C(=O)N[C@@H](CCCNC(=N)N)C(=O)N[C@@H](CC(N)=O)C(=O)O
REMARK SMILES IDX 7 1 8 2 6 3 9 5 17 6 18 7 19 8 20 10 25 11 26 12 27 13 28 15
REMARK SMILES IDX 29 16 30 19 31 20 21 22 22 23 23 24 24 25 10 28 11 29 12 30
REMARK SMILES IDX 16 31 13 32 15 33 14 34 5 35 32 36 34 37 33 38 35 40 43 41
REMARK SMILES IDX 45 42 44 43 46 45 51 46 52 47 53 48 47 50 48 51 49 52 50 53
REMARK SMILES IDX 36 56 37 57 38 58 39 59 40 60 42 61 41 65 4 67 2 68 1 69
REMARK SMILES IDX 3 70
REMARK H PARENT 6 4 17 9 25 14 29 17 29 18 31 21 23 26 23 27 34 39 45 44 53 49
REMARK H PARENT 49 54 49 55 39 62 42 63 42 64 41 66
ROOT
ATOM      1  C   PHE A   3      20.042  10.091  -6.460  1.00  0.00     0.243 C 
ATOM      2  O   PHE A   3      20.158   9.174  -5.600  1.00  0.00    -0.273 OA
ATOM      3  N   LEU A   4      20.562   9.924  -7.770  1.00  0.00    -0.343 N 
ATOM      4  H   UNL     1      20.398  10.665  -8.489  1.00  0.00     0.164 HD
ENDROOT
BRANCH   1   5
ATOM      5  CA  PHE A   3      19.335  11.361  -6.125  1.00  0.00     0.175 C 
BRANCH   5   6
ATOM      6  N   PHE A   3      18.079  11.034  -5.493  1.00  0.00    -0.342 N 
ATOM      7  C   ASN A   2      16.875  11.743  -5.741  1.00  0.00     0.243 C 
ATOM      8  O   ASN A   2      16.888  12.785  -6.454  1.00  0.00    -0.273 OA
ATOM      9  H   UNL     1      18.151  10.451  -4.633  1.00  0.00     0.164 HD
BRANCH   7  10
ATOM     10  CA  ASN A   2      15.625  11.283  -5.039  1.00  0.00     0.180 C 
BRANCH  10  11
ATOM     11  N   ASN A   2      14.443  11.729  -5.761  1.00  0.00    -0.342 N 
ATOM     12  C   SER A   1      13.915  13.044  -5.631  1.00  0.00     0.239 C 
ATOM     13  O   SER A   1      14.451  13.860  -4.832  1.00  0.00    -0.273 OA
ATOM     14  H   UNL     1      13.860  11.002  -6.229  1.00  0.00     0.164 HD
BRANCH  12  15
ATOM     15  CA  SER A   1      12.662  13.413  -6.388  1.00  0.00     0.167 C 
BRANCH  15  16
ATOM     16  N   SER A   1      12.460  14.863  -6.395  1.00  0.00    -0.318 NA
ATOM     17  H   UNL     1      12.294  15.191  -5.416  1.00  0.00     0.119 HD
ATOM     18  H   UNL     1      13.322  15.337  -6.753  1.00  0.00     0.119 HD
ENDBRANCH  15  16
BRANCH  15  19
ATOM     19  CB  SER A   1      12.691  12.893  -7.843  1.00  0.00     0.184 C 
BRANCH  19  20
ATOM     20  OG  SER A   1      11.436  13.051  -8.444  1.00  0.00    -0.394 OA
ATOM     21  H   UNL     1      11.380  13.995  -8.746  1.00  0.00     0.210 HD
ENDBRANCH  19  20
ENDBRANCH  15  19
ENDBRANCH  12  15
ENDBRANCH  10  11
BRANCH  10  22
ATOM     22  CB  ASN A   2      15.582   9.739  -4.915  1.00  0.00     0.134 C 
BRANCH  22  23
ATOM     23  CG  ASN A   2      14.416   9.287  -4.095  1.00  0.00     0.220 C 
ATOM     24  ND2 ASN A   2      14.422   9.452  -2.677  1.00  0.00    -0.370 N 
ATOM     25  OD1 ASN A   2      13.413   8.773  -4.659  1.00  0.00    -0.275 OA
ATOM     26  H   UNL     1      15.244   9.878  -2.194  1.00  0.00     0.159 HD
ATOM     27  H   UNL     1      13.602   9.147  -2.107  1.00  0.00     0.159 HD
ENDBRANCH  22  23
ENDBRANCH  10  22
ENDBRANCH   7  10
ENDBRANCH   5   6
BRANCH   5  28
ATOM     28  CB  PHE A   3      20.175  12.259  -5.202  1.00  0.00     0.070 C 
BRANCH  28  29
ATOM     29  CG  PHE A   3      20.409  11.678  -3.823  1.00  0.00    -0.045 A 
ATOM     30  CD1 PHE A   3      19.505  11.944  -2.779  1.00  0.00     0.004 A 
ATOM     31  CD2 PHE A   3      21.519  10.853  -3.575  1.00  0.00     0.004 A 
ATOM     32  CE1 PHE A   3      19.700  11.377  -1.516  1.00  0.00     0.000 A 
ATOM     33  CE2 PHE A   3      21.701  10.276  -2.315  1.00  0.00     0.000 A 
ATOM     34  CZ  PHE A   3      20.795  10.541  -1.285  1.00  0.00     0.000 A 
ENDBRANCH  28  29
ENDBRANCH   5  28
ENDBRANCH   1   5
BRANCH   3  35
ATOM     35  CA  LEU A   4      21.347   8.762  -8.138  1.00  0.00     0.171 C 
BRANCH  35  36
ATOM     36  C   LEU A   4      22.712   9.217  -8.519  1.00  0.00     0.243 C 
ATOM     37  N   ARG A   5      23.822   8.720  -7.785  1.00  0.00    -0.343 N 
ATOM     38  O   LEU A   4      22.876  10.033  -9.467  1.00  0.00    -0.273 OA
ATOM     39  H   UNL     1      23.666   8.031  -7.014  1.00  0.00     0.164 HD
BRANCH  37  40
ATOM     40  CA  ARG A   5      25.185   9.122  -8.072  1.00  0.00     0.171 C 
BRANCH  40  41
ATOM     41  C   ARG A   5      25.899   7.968  -8.685  1.00  0.00     0.243 C 
ATOM     42  N   ASN A   6      25.913   7.864 -10.102  1.00  0.00    -0.341 N 
ATOM     43  O   ARG A   5      26.447   7.087  -7.969  1.00  0.00    -0.273 OA
ATOM     44  H   UNL     1      25.488   8.647 -10.651  1.00  0.00     0.164 HD
BRANCH  42  45
ATOM     45  CA  ASN A   6      26.542   6.751 -10.804  1.00  0.00     0.201 C 
BRANCH  45  46
ATOM     46  C   ASN A   6      27.993   6.642 -10.416  1.00  0.00     0.326 C 
ATOM     47  O   ASN A   6      28.794   7.579 -10.677  1.00  0.00    -0.250 OA
BRANCH  46  48
ATOM     48  OXT ASN A   6      28.451   5.499  -9.768  1.00  0.00    -0.480 OA
ATOM     49  H   UNL     1      29.424   5.409  -9.499  1.00  0.00     0.296 HD
ENDBRANCH  46  48
ENDBRANCH  45  46
BRANCH  45  50
ATOM     50  CB  ASN A   6      26.424   6.947 -12.323  1.00  0.00     0.136 C 
BRANCH  50  51
ATOM     51  CG  ASN A   6      25.010   7.181 -12.773  1.00  0.00     0.220 C 
ATOM     52  ND2 ASN A   6      24.753   8.090 -13.833  1.00  0.00    -0.370 N 
ATOM     53  OD1 ASN A   6      24.053   6.558 -12.243  1.00  0.00    -0.275 OA
ATOM     54  H   UNL     1      25.533   8.600 -14.306  1.00  0.00     0.159 HD
ATOM     55  H   UNL     1      23.774   8.258 -14.156  1.00  0.00     0.159 HD
ENDBRANCH  50  51
ENDBRANCH  45  50
ENDBRANCH  42  45
ENDBRANCH  40  41
BRANCH  40  56
ATOM     56  CB  ARG A   5      25.863   9.604  -6.795  1.00  0.00     0.037 C 
BRANCH  56  57
ATOM     57  CG  ARG A   5      25.167  10.860  -6.270  1.00  0.00     0.024 C 
BRANCH  57  58
ATOM     58  CD  ARG A   5      25.840  11.391  -5.013  1.00  0.00     0.116 C 
BRANCH  58  59
ATOM     59  NE  ARG A   5      25.375  10.688  -3.819  1.00  0.00    -0.357 N 
ATOM     60  CZ  ARG A   5      25.471  11.283  -2.526  1.00  0.00     0.185 C 
ATOM     61  NH2 ARG A   5      26.109  12.548  -2.353  1.00  0.00    -0.370 N 
ATOM     62  H   UNL     1      24.889   9.766  -3.911  1.00  0.00     0.163 HD
ATOM     63  H   UNL     1      26.696  12.985  -3.096  1.00  0.00     0.159 HD
ATOM     64  H   UNL     1      26.085  13.025  -1.424  1.00  0.00     0.159 HD
BRANCH  60  65
ATOM     65  NH1 ARG A   5      24.964  10.671  -1.503  1.00  0.00    -0.270 NA
ATOM     66  H   UNL     1      25.010  11.075  -0.541  1.00  0.00     0.191 HD
ENDBRANCH  60  65
ENDBRANCH  58  59
ENDBRANCH  57  58
ENDBRANCH  56  57
ENDBRANCH  40  56
ENDBRANCH  37  40
ENDBRANCH  35  36
BRANCH  35  67
ATOM     67  CB  LEU A   4      20.654   8.000  -9.270  1.00  0.00     0.038 C 
BRANCH  67  68
ATOM     68  CG  LEU A   4      21.448   6.772  -9.768  1.00  0.00    -0.015 C 
ATOM     69  CD1 LEU A   4      21.762   5.779  -8.639  1.00  0.00     0.007 C 
ATOM     70  CD2 LEU A   4      20.661   6.068 -10.877  1.00  0.00     0.007 C 
ENDBRANCH  67  68
ENDBRANCH  35  67
ENDBRANCH   3  35
TORSDOF 28
