REMARK SMILES CC(C)C[C@H](NC(=O)[C@H](Cc1c[nH]cn1)NC(=O)[C@H](CC(C)C)NC(=O)[C@@H](N)CO)C(=O)N[C@@H](CCCNC(=N)N)C(=O)N[C@@H](CC(N)=O)C(=O)O
REMARK SMILES IDX 7 1 8 2 6 3 9 5 16 6 17 7 18 8 19 10 24 11 25 12 26 13 27 15
REMARK SMILES IDX 28 16 29 19 30 20 20 22 21 23 22 24 23 25 10 26 11 27 15 28
REMARK SMILES IDX 12 29 14 30 13 31 5 33 31 34 33 35 32 36 34 38 42 39 44 40
REMARK SMILES IDX 43 41 45 43 50 44 51 45 52 46 46 48 47 49 48 50 49 51 35 54
REMARK SMILES IDX 36 55 37 56 38 57 39 58 41 59 40 63 4 65 2 66 1 67 3 68
REMARK H PARENT 6 4 16 9 24 14 28 17 28 18 30 21 13 32 33 37 44 42 52 47 48 52
REMARK H PARENT 48 53 38 60 41 61 41 62 40 64
ROOT
ATOM      1  C   HIS A   3      20.047  10.091  -6.455  1.00  0.00     0.243 C 
ATOM      2  O   HIS A   3      20.168   9.177  -5.593  1.00  0.00    -0.273 OA
ATOM      3  N   LEU A   4      20.562   9.922  -7.767  1.00  0.00    -0.342 N 
ATOM      4  H   UNL     1      20.395  10.663  -8.487  1.00  0.00     0.164 HD
ENDROOT
BRANCH   1   5
ATOM      5  CA  HIS A   3      19.340  11.361  -6.121  1.00  0.00     0.177 C 
BRANCH   5   6
ATOM      6  N   HIS A   3      18.088  11.036  -5.481  1.00  0.00    -0.342 N 
ATOM      7  C   LEU A   2      16.889  11.747  -5.733  1.00  0.00     0.243 C 
ATOM      8  O   LEU A   2      16.907  12.787  -6.451  1.00  0.00    -0.273 OA
ATOM      9  H   UNL     1      18.166  10.479  -4.604  1.00  0.00     0.164 HD
BRANCH   7  10
ATOM     10  CA  LEU A   2      15.631  11.295  -5.048  1.00  0.00     0.171 C 
BRANCH  10  11
ATOM     11  N   LEU A   2      14.494  11.755  -5.814  1.00  0.00    -0.343 N 
ATOM     12  C   SER A   1      13.913  13.042  -5.638  1.00  0.00     0.239 C 
ATOM     13  O   SER A   1      14.425  13.851  -4.814  1.00  0.00    -0.273 OA
ATOM     14  H   UNL     1      14.219  11.143  -6.607  1.00  0.00     0.164 HD
BRANCH  12  15
ATOM     15  CA  SER A   1      12.652  13.404  -6.388  1.00  0.00     0.167 C 
BRANCH  15  16
ATOM     16  N   SER A   1      12.462  14.855  -6.420  1.00  0.00    -0.318 NA
ATOM     17  H   UNL     1      12.309  15.204  -5.446  1.00  0.00     0.119 HD
ATOM     18  H   UNL     1      13.324  15.314  -6.797  1.00  0.00     0.119 HD
ENDBRANCH  15  16
BRANCH  15  19
ATOM     19  CB  SER A   1      12.645  12.847  -7.830  1.00  0.00     0.184 C 
BRANCH  19  20
ATOM     20  OG  SER A   1      11.421  13.118  -8.445  1.00  0.00    -0.394 OA
ATOM     21  H   UNL     1      11.517  12.847  -9.395  1.00  0.00     0.210 HD
ENDBRANCH  19  20
ENDBRANCH  15  19
ENDBRANCH  12  15
ENDBRANCH  10  11
BRANCH  10  22
ATOM     22  CB  LEU A   2      15.560   9.748  -4.936  1.00  0.00     0.038 C 
BRANCH  22  23
ATOM     23  CG  LEU A   2      14.411   9.241  -4.040  1.00  0.00    -0.015 C 
ATOM     24  CD1 LEU A   2      14.642   7.767  -3.668  1.00  0.00     0.007 C 
ATOM     25  CD2 LEU A   2      13.025   9.385  -4.691  1.00  0.00     0.007 C 
ENDBRANCH  22  23
ENDBRANCH  10  22
ENDBRANCH   7  10
ENDBRANCH   5   6
BRANCH   5  26
ATOM     26  CB  HIS A   3      20.179  12.260  -5.202  1.00  0.00     0.093 C 
BRANCH  26  27
ATOM     27  CG  HIS A   3      20.422  11.679  -3.833  1.00  0.00     0.061 A 
ATOM     28  ND1 HIS A   3      19.584  11.835  -2.788  1.00  0.00    -0.242 NA
ATOM     29  CD2 HIS A   3      21.500  10.908  -3.458  1.00  0.00     0.107 A 
ATOM     30  CE1 HIS A   3      20.179  11.146  -1.791  1.00  0.00     0.196 A 
ATOM     31  NE2 HIS A   3      21.338  10.575  -2.169  1.00  0.00    -0.351 N 
ATOM     32  H   UNL     1      21.973   9.990  -1.583  1.00  0.00     0.167 HD
ENDBRANCH  26  27
ENDBRANCH   5  26
ENDBRANCH   1   5
BRANCH   3  33
ATOM     33  CA  LEU A   4      21.347   8.761  -8.137  1.00  0.00     0.171 C 
BRANCH  33  34
ATOM     34  C   LEU A   4      22.712   9.217  -8.519  1.00  0.00     0.243 C 
ATOM     35  N   ARG A   5      23.822   8.720  -7.785  1.00  0.00    -0.343 N 
ATOM     36  O   LEU A   4      22.876  10.033  -9.467  1.00  0.00    -0.273 OA
ATOM     37  H   UNL     1      23.666   8.031  -7.014  1.00  0.00     0.164 HD
BRANCH  35  38
ATOM     38  CA  ARG A   5      25.185   9.122  -8.073  1.00  0.00     0.171 C 
BRANCH  38  39
ATOM     39  C   ARG A   5      25.899   7.968  -8.685  1.00  0.00     0.243 C 
ATOM     40  N   ASN A   6      25.913   7.864 -10.102  1.00  0.00    -0.341 N 
ATOM     41  O   ARG A   5      26.447   7.087  -7.969  1.00  0.00    -0.273 OA
ATOM     42  H   UNL     1      25.488   8.647 -10.651  1.00  0.00     0.164 HD
BRANCH  40  43
ATOM     43  CA  ASN A   6      26.542   6.751 -10.804  1.00  0.00     0.201 C 
BRANCH  43  44
ATOM     44  C   ASN A   6      27.993   6.642 -10.416  1.00  0.00     0.326 C 
ATOM     45  O   ASN A   6      28.794   7.579 -10.677  1.00  0.00    -0.250 OA
BRANCH  44  46
ATOM     46  OXT ASN A   6      28.451   5.499  -9.768  1.00  0.00    -0.480 OA
ATOM     47  H   UNL     1      29.424   5.409  -9.499  1.00  0.00     0.296 HD
ENDBRANCH  44  46
ENDBRANCH  43  44
BRANCH  43  48
ATOM     48  CB  ASN A   6      26.424   6.946 -12.323  1.00  0.00     0.136 C 
BRANCH  48  49
ATOM     49  CG  ASN A   6      25.010   7.180 -12.773  1.00  0.00     0.220 C 
ATOM     50  ND2 ASN A   6      24.753   8.090 -13.833  1.00  0.00    -0.370 N 
ATOM     51  OD1 ASN A   6      24.053   6.558 -12.243  1.00  0.00    -0.275 OA
ATOM     52  H   UNL     1      23.775   8.258 -14.156  1.00  0.00     0.159 HD
ATOM     53  H   UNL     1      25.533   8.600 -14.306  1.00  0.00     0.159 HD
ENDBRANCH  48  49
ENDBRANCH  43  48
ENDBRANCH  40  43
ENDBRANCH  38  39
BRANCH  38  54
ATOM     54  CB  ARG A   5      25.863   9.605  -6.796  1.00  0.00     0.037 C 
BRANCH  54  55
ATOM     55  CG  ARG A   5      25.166  10.861  -6.272  1.00  0.00     0.024 C 
BRANCH  55  56
ATOM     56  CD  ARG A   5      25.840  11.392  -5.015  1.00  0.00     0.116 C 
BRANCH  56  57
ATOM     57  NE  ARG A   5      25.378  10.684  -3.823  1.00  0.00    -0.357 N 
ATOM     58  CZ  ARG A   5      25.468  11.279  -2.527  1.00  0.00     0.185 C 
ATOM     59  NH2 ARG A   5      26.103  12.542  -2.350  1.00  0.00    -0.370 N 
ATOM     60  H   UNL     1      24.907   9.756  -3.921  1.00  0.00     0.163 HD
ATOM     61  H   UNL     1      26.688  12.985  -3.091  1.00  0.00     0.159 HD
ATOM     62  H   UNL     1      26.080  13.008  -1.415  1.00  0.00     0.159 HD
BRANCH  58  63
ATOM     63  NH1 ARG A   5      24.962  10.676  -1.499  1.00  0.00    -0.270 NA
ATOM     64  H   UNL     1      24.488   9.750  -1.583  1.00  0.00     0.191 HD
ENDBRANCH  58  63
ENDBRANCH  56  57
ENDBRANCH  55  56
ENDBRANCH  54  55
ENDBRANCH  38  54
ENDBRANCH  35  38
ENDBRANCH  33  34
BRANCH  33  65
ATOM     65  CB  LEU A   4      20.654   8.000  -9.270  1.00  0.00     0.038 C 
BRANCH  65  66
ATOM     66  CG  LEU A   4      21.448   6.772  -9.768  1.00  0.00    -0.015 C 
ATOM     67  CD1 LEU A   4      21.762   5.779  -8.639  1.00  0.00     0.007 C 
ATOM     68  CD2 LEU A   4      20.661   6.068 -10.877  1.00  0.00     0.007 C 
ENDBRANCH  65  66
ENDBRANCH  33  65
ENDBRANCH   3  33
TORSDOF 28
