REMARK SMILES CC(C)C[C@H](NC(=O)[C@H](CO)NC(=O)[C@@H](NC(=O)[C@@H](N)CO)C(C)C)C(=O)N[C@@H](CCCNC(=N)N)C(=O)N[C@@H](CC(N)=O)C(=O)O
REMARK SMILES IDX 7 1 8 2 6 3 9 5 12 6 13 7 14 8 15 10 16 11 17 12 18 13 19 15
REMARK SMILES IDX 20 16 21 19 22 20 23 22 24 23 25 24 10 25 11 26 5 28 26 29
REMARK SMILES IDX 28 30 27 31 29 33 37 34 39 35 38 36 40 38 45 39 46 40 47 41
REMARK SMILES IDX 41 43 42 44 43 45 44 46 30 49 31 50 32 51 33 52 34 53 36 54
REMARK SMILES IDX 35 58 4 60 2 61 1 62 3 63
REMARK H PARENT 6 4 12 9 16 14 20 17 20 18 22 21 11 27 28 32 39 37 47 42 43 47
REMARK H PARENT 43 48 33 55 36 56 36 57 35 59
ROOT
ATOM      1  C   SER A   3      20.038  10.100  -6.460  1.00  0.00     0.245 C 
ATOM      2  O   SER A   3      20.170   9.199  -5.585  1.00  0.00    -0.273 OA
ATOM      3  N   LEU A   4      20.558   9.923  -7.770  1.00  0.00    -0.342 N 
ATOM      4  H   UNL     1      20.390  10.659  -8.494  1.00  0.00     0.164 HD
ENDROOT
BRANCH   1   5
ATOM      5  CA  SER A   3      19.332  11.375  -6.139  1.00  0.00     0.197 C 
BRANCH   5   6
ATOM      6  N   SER A   3      18.088  11.060  -5.478  1.00  0.00    -0.340 N 
ATOM      7  C   VAL A   2      16.877  11.753  -5.744  1.00  0.00     0.243 C 
ATOM      8  O   VAL A   2      16.883  12.789  -6.464  1.00  0.00    -0.273 OA
ATOM      9  H   UNL     1      18.180  10.538  -4.579  1.00  0.00     0.164 HD
BRANCH   7  10
ATOM     10  CA  VAL A   2      15.624  11.278  -5.057  1.00  0.00     0.173 C 
BRANCH  10  11
ATOM     11  N   VAL A   2      14.436  11.732  -5.767  1.00  0.00    -0.343 N 
ATOM     12  C   SER A   1      13.915  13.049  -5.638  1.00  0.00     0.239 C 
ATOM     13  O   SER A   1      14.450  13.865  -4.837  1.00  0.00    -0.273 OA
ATOM     14  H   UNL     1      13.818  11.015  -6.199  1.00  0.00     0.164 HD
BRANCH  12  15
ATOM     15  CA  SER A   1      12.663  13.415  -6.390  1.00  0.00     0.167 C 
BRANCH  15  16
ATOM     16  N   SER A   1      12.474  14.867  -6.374  1.00  0.00    -0.318 NA
ATOM     17  H   UNL     1      13.209  15.323  -6.963  1.00  0.00     0.119 HD
ATOM     18  H   UNL     1      11.545  15.094  -6.796  1.00  0.00     0.119 HD
ENDBRANCH  15  16
BRANCH  15  19
ATOM     19  CB  SER A   1      12.689  12.888  -7.848  1.00  0.00     0.184 C 
BRANCH  19  20
ATOM     20  OG  SER A   1      11.435  13.047  -8.451  1.00  0.00    -0.394 OA
ATOM     21  H   UNL     1      10.839  12.358  -8.056  1.00  0.00     0.210 HD
ENDBRANCH  19  20
ENDBRANCH  15  19
ENDBRANCH  12  15
ENDBRANCH  10  11
BRANCH  10  22
ATOM     22  CB  VAL A   2      15.601   9.725  -4.905  1.00  0.00     0.015 C 
ATOM     23  CG1 VAL A   2      14.406   9.259  -4.075  1.00  0.00     0.010 C 
ATOM     24  CG2 VAL A   2      15.666   8.960  -6.243  1.00  0.00     0.010 C 
ENDBRANCH  10  22
ENDBRANCH   7  10
ENDBRANCH   5   6
BRANCH   5  25
ATOM     25  CB  SER A   3      20.186  12.247  -5.219  1.00  0.00     0.191 C 
BRANCH  25  26
ATOM     26  OG  SER A   3      19.538  13.459  -4.940  1.00  0.00    -0.394 OA
ATOM     27  H   UNL     1      19.621  14.020  -5.755  1.00  0.00     0.210 HD
ENDBRANCH  25  26
ENDBRANCH   5  25
ENDBRANCH   1   5
BRANCH   3  28
ATOM     28  CA  LEU A   4      21.344   8.761  -8.135  1.00  0.00     0.171 C 
BRANCH  28  29
ATOM     29  C   LEU A   4      22.711   9.217  -8.517  1.00  0.00     0.243 C 
ATOM     30  N   ARG A   5      23.821   8.720  -7.784  1.00  0.00    -0.343 N 
ATOM     31  O   LEU A   4      22.874  10.032  -9.466  1.00  0.00    -0.273 OA
ATOM     32  H   UNL     1      23.666   8.029  -7.015  1.00  0.00     0.164 HD
BRANCH  30  33
ATOM     33  CA  ARG A   5      25.184   9.122  -8.073  1.00  0.00     0.171 C 
BRANCH  33  34
ATOM     34  C   ARG A   5      25.899   7.968  -8.685  1.00  0.00     0.243 C 
ATOM     35  N   ASN A   6      25.913   7.864 -10.102  1.00  0.00    -0.341 N 
ATOM     36  O   ARG A   5      26.447   7.087  -7.969  1.00  0.00    -0.273 OA
ATOM     37  H   UNL     1      25.489   8.647 -10.651  1.00  0.00     0.164 HD
BRANCH  35  38
ATOM     38  CA  ASN A   6      26.542   6.751 -10.804  1.00  0.00     0.201 C 
BRANCH  38  39
ATOM     39  C   ASN A   6      27.992   6.642 -10.416  1.00  0.00     0.326 C 
ATOM     40  O   ASN A   6      28.794   7.579 -10.677  1.00  0.00    -0.250 OA
BRANCH  39  41
ATOM     41  OXT ASN A   6      28.451   5.499  -9.768  1.00  0.00    -0.480 OA
ATOM     42  H   UNL     1      29.424   5.409  -9.499  1.00  0.00     0.296 HD
ENDBRANCH  39  41
ENDBRANCH  38  39
BRANCH  38  43
ATOM     43  CB  ASN A   6      26.424   6.947 -12.323  1.00  0.00     0.136 C 
BRANCH  43  44
ATOM     44  CG  ASN A   6      25.010   7.180 -12.773  1.00  0.00     0.220 C 
ATOM     45  ND2 ASN A   6      24.753   8.090 -13.833  1.00  0.00    -0.370 N 
ATOM     46  OD1 ASN A   6      24.053   6.558 -12.243  1.00  0.00    -0.275 OA
ATOM     47  H   UNL     1      23.774   8.258 -14.156  1.00  0.00     0.159 HD
ATOM     48  H   UNL     1      25.533   8.600 -14.306  1.00  0.00     0.159 HD
ENDBRANCH  43  44
ENDBRANCH  38  43
ENDBRANCH  35  38
ENDBRANCH  33  34
BRANCH  33  49
ATOM     49  CB  ARG A   5      25.862   9.605  -6.796  1.00  0.00     0.037 C 
BRANCH  49  50
ATOM     50  CG  ARG A   5      25.166  10.860  -6.270  1.00  0.00     0.024 C 
BRANCH  50  51
ATOM     51  CD  ARG A   5      25.842  11.390  -5.014  1.00  0.00     0.116 C 
BRANCH  51  52
ATOM     52  NE  ARG A   5      25.378  10.687  -3.820  1.00  0.00    -0.357 N 
ATOM     53  CZ  ARG A   5      25.470  11.282  -2.526  1.00  0.00     0.185 C 
ATOM     54  NH2 ARG A   5      26.109  12.546  -2.351  1.00  0.00    -0.370 N 
ATOM     55  H   UNL     1      24.899   9.762  -3.912  1.00  0.00     0.163 HD
ATOM     56  H   UNL     1      26.699  12.981  -3.092  1.00  0.00     0.159 HD
ATOM     57  H   UNL     1      26.083  13.022  -1.422  1.00  0.00     0.159 HD
BRANCH  53  58
ATOM     58  NH1 ARG A   5      24.956  10.671  -1.506  1.00  0.00    -0.270 NA
ATOM     59  H   UNL     1      24.999  11.075  -0.544  1.00  0.00     0.191 HD
ENDBRANCH  53  58
ENDBRANCH  51  52
ENDBRANCH  50  51
ENDBRANCH  49  50
ENDBRANCH  33  49
ENDBRANCH  30  33
ENDBRANCH  28  29
BRANCH  28  60
ATOM     60  CB  LEU A   4      20.653   7.999  -9.268  1.00  0.00     0.038 C 
BRANCH  60  61
ATOM     61  CG  LEU A   4      21.448   6.772  -9.767  1.00  0.00    -0.015 C 
ATOM     62  CD1 LEU A   4      21.762   5.779  -8.638  1.00  0.00     0.007 C 
ATOM     63  CD2 LEU A   4      20.662   6.068 -10.876  1.00  0.00     0.007 C 
ENDBRANCH  60  61
ENDBRANCH  28  60
ENDBRANCH   3  28
TORSDOF 27
