REMARK SMILES CC(C)C[C@H](NC(=O)[C@H](Cc1ccccc1)NC(=O)[C@@H](N)CO)C(=O)N[C@@H](C)C(=O)N[C@@H](Cc1c[nH]cn1)C(=O)N[C@@H](CC(N)=O)C(=O)O
REMARK SMILES IDX 24 1 25 2 26 3 5 5 6 6 7 7 8 8 9 10 17 11 18 12 19 13 20 15
REMARK SMILES IDX 21 16 22 19 23 20 10 22 11 23 12 24 16 25 13 26 15 27 14 28
REMARK SMILES IDX 4 29 2 30 1 31 3 32 27 33 28 34 29 35 31 36 30 37 32 39
REMARK SMILES IDX 39 40 41 41 40 42 42 44 47 45 48 46 49 47 43 49 44 50 45 51
REMARK SMILES IDX 46 52 33 55 34 56 38 57 35 58 37 59 36 60
REMARK H PARENT 26 4 6 9 17 14 21 17 21 18 23 21 31 38 41 43 49 48 45 53 45 54
REMARK H PARENT 36 61
ROOT
ATOM      1  C   LEU A   3      -0.524   0.129  -0.118  1.00  0.00     0.243 C 
ATOM      2  O   LEU A   3      -0.306  -0.661  -1.078  1.00  0.00    -0.273 OA
ATOM      3  N   ALA A   4       0.413   1.174   0.177  1.00  0.00    -0.343 N 
ATOM      4  H   UNL     1       0.195   1.833   0.958  1.00  0.00     0.164 HD
ENDROOT
BRANCH   1   5
ATOM      5  CA  LEU A   3      -1.747  -0.047   0.749  1.00  0.00     0.171 C 
BRANCH   5   6
ATOM      6  N   LEU A   3      -2.906  -0.511  -0.025  1.00  0.00    -0.343 N 
ATOM      7  C   PHE A   2      -4.254  -0.246   0.391  1.00  0.00     0.243 C 
ATOM      8  O   PHE A   2      -4.475   0.305   1.503  1.00  0.00    -0.273 OA
ATOM      9  H   UNL     1      -2.768  -0.950  -0.961  1.00  0.00     0.164 HD
BRANCH   7  10
ATOM     10  CA  PHE A   2      -5.406  -0.601  -0.521  1.00  0.00     0.175 C 
BRANCH  10  11
ATOM     11  N   PHE A   2      -6.689  -0.380   0.158  1.00  0.00    -0.343 N 
ATOM     12  C   SER A   1      -7.561  -1.445   0.567  1.00  0.00     0.239 C 
ATOM     13  O   SER A   1      -7.216  -2.647   0.402  1.00  0.00    -0.273 OA
ATOM     14  H   UNL     1      -6.950   0.600   0.410  1.00  0.00     0.164 HD
BRANCH  12  15
ATOM     15  CA  SER A   1      -8.892  -1.144   1.206  1.00  0.00     0.167 C 
BRANCH  15  16
ATOM     16  N   SER A   1      -8.685  -0.460   2.486  1.00  0.00    -0.318 NA
ATOM     17  H   UNL     1      -9.598  -0.409   2.992  1.00  0.00     0.119 HD
ATOM     18  H   UNL     1      -8.372   0.525   2.321  1.00  0.00     0.119 HD
ENDBRANCH  15  16
BRANCH  15  19
ATOM     19  CB  SER A   1      -9.784  -0.319   0.256  1.00  0.00     0.184 C 
BRANCH  19  20
ATOM     20  OG  SER A   1     -11.048  -0.099   0.823  1.00  0.00    -0.394 OA
ATOM     21  H   UNL     1     -11.533  -0.964   0.771  1.00  0.00     0.210 HD
ENDBRANCH  19  20
ENDBRANCH  15  19
ENDBRANCH  12  15
ENDBRANCH  10  11
BRANCH  10  22
ATOM     22  CB  PHE A   2      -5.362   0.188  -1.850  1.00  0.00     0.070 C 
BRANCH  22  23
ATOM     23  CG  PHE A   2      -5.309   1.687  -1.658  1.00  0.00    -0.045 A 
ATOM     24  CD1 PHE A   2      -6.495   2.439  -1.583  1.00  0.00     0.004 A 
ATOM     25  CD2 PHE A   2      -4.071   2.344  -1.534  1.00  0.00     0.004 A 
ATOM     26  CE1 PHE A   2      -6.442   3.821  -1.382  1.00  0.00     0.000 A 
ATOM     27  CE2 PHE A   2      -4.024   3.727  -1.333  1.00  0.00     0.000 A 
ATOM     28  CZ  PHE A   2      -5.208   4.464  -1.256  1.00  0.00     0.000 A 
ENDBRANCH  22  23
ENDBRANCH  10  22
ENDBRANCH   7  10
ENDBRANCH   5   6
BRANCH   5  29
ATOM     29  CB  LEU A   3      -1.472  -0.955   1.971  1.00  0.00     0.038 C 
BRANCH  29  30
ATOM     30  CG  LEU A   3      -0.854  -2.346   1.672  1.00  0.00    -0.015 C 
ATOM     31  CD1 LEU A   3      -1.819  -3.271   0.912  1.00  0.00     0.007 C 
ATOM     32  CD2 LEU A   3      -0.433  -3.013   2.989  1.00  0.00     0.007 C 
ENDBRANCH  29  30
ENDBRANCH   5  29
ENDBRANCH   1   5
BRANCH   3  33
ATOM     33  CA  ALA A   4       1.634   1.368  -0.608  1.00  0.00     0.168 C 
ATOM     34  CB  ALA A   4       2.210   2.766  -0.370  1.00  0.00     0.041 C 
BRANCH  33  35
ATOM     35  C   ALA A   4       2.654   0.326  -0.242  1.00  0.00     0.242 C 
ATOM     36  N   HIS A   5       3.310  -0.433  -1.266  1.00  0.00    -0.342 N 
ATOM     37  O   ALA A   4       2.958   0.151   0.972  1.00  0.00    -0.273 OA
ATOM     38  H   UNL     1       2.947  -0.362  -2.244  1.00  0.00     0.164 HD
BRANCH  36  39
ATOM     39  CA  HIS A   5       4.638  -1.010  -1.053  1.00  0.00     0.177 C 
BRANCH  39  40
ATOM     40  C   HIS A   5       5.675   0.071  -1.215  1.00  0.00     0.243 C 
ATOM     41  N   ASN A   6       6.593   0.355  -0.150  1.00  0.00    -0.340 N 
ATOM     42  O   HIS A   5       5.737   0.717  -2.297  1.00  0.00    -0.273 OA
ATOM     43  H   UNL     1       6.556  -0.231   0.716  1.00  0.00     0.164 HD
BRANCH  41  44
ATOM     44  CA  ASN A   6       7.686   1.321  -0.292  1.00  0.00     0.201 C 
BRANCH  44  45
ATOM     45  C   ASN A   6       8.937   0.602  -0.707  1.00  0.00     0.326 C 
ATOM     46  O   ASN A   6       9.355  -0.385  -0.041  1.00  0.00    -0.250 OA
BRANCH  45  47
ATOM     47  OXT ASN A   6       9.636   1.020  -1.836  1.00  0.00    -0.480 OA
ATOM     48  H   UNL     1      10.483   0.548  -2.128  1.00  0.00     0.296 HD
ENDBRANCH  45  47
ENDBRANCH  44  45
BRANCH  44  49
ATOM     49  CB  ASN A   6       7.907   2.082   1.026  1.00  0.00     0.136 C 
BRANCH  49  50
ATOM     50  CG  ASN A   6       6.675   2.827   1.475  1.00  0.00     0.220 C 
ATOM     51  ND2 ASN A   6       6.413   2.999   2.870  1.00  0.00    -0.370 N 
ATOM     52  OD1 ASN A   6       5.905   3.357   0.628  1.00  0.00    -0.275 OA
ATOM     53  H   UNL     1       5.568   3.527   3.184  1.00  0.00     0.159 HD
ATOM     54  H   UNL     1       7.052   2.598   3.593  1.00  0.00     0.159 HD
ENDBRANCH  49  50
ENDBRANCH  44  49
ENDBRANCH  41  44
ENDBRANCH  39  40
BRANCH  39  55
ATOM     55  CB  HIS A   5       4.878  -2.169  -2.037  1.00  0.00     0.093 C 
BRANCH  55  56
ATOM     56  CG  HIS A   5       6.263  -2.733  -1.901  1.00  0.00     0.061 A 
ATOM     57  ND1 HIS A   5       7.244  -2.543  -2.804  1.00  0.00    -0.242 NA
ATOM     58  CD2 HIS A   5       6.759  -3.402  -0.802  1.00  0.00     0.107 A 
ATOM     59  CE1 HIS A   5       8.322  -3.123  -2.237  1.00  0.00     0.196 A 
ATOM     60  NE2 HIS A   5       8.060  -3.642  -1.023  1.00  0.00    -0.351 N 
ATOM     61  H   UNL     1       8.733  -4.115  -0.380  1.00  0.00     0.167 HD
ENDBRANCH  55  56
ENDBRANCH  39  55
ENDBRANCH  36  39
ENDBRANCH  33  35
ENDBRANCH   3  33
TORSDOF 23
