REMARK SMILES CC(C)C[C@H](NC(=O)[C@H](CC(N)=O)NC(=O)CNC(=O)[C@@H](N)CO)C(=O)N[C@@H](CCCNC(=N)N)C(=O)N[C@@H](CC(N)=O)C(=O)O
REMARK SMILES IDX 7 1 8 2 6 3 9 5 14 6 15 7 16 8 17 10 18 11 19 12 20 13 21 15
REMARK SMILES IDX 22 16 23 19 24 20 10 22 11 23 12 24 13 25 5 28 25 29 27 30
REMARK SMILES IDX 26 31 28 33 36 34 38 35 37 36 39 38 44 39 45 40 46 41 40 43
REMARK SMILES IDX 41 44 42 45 43 46 29 49 30 50 31 51 32 52 33 53 35 54 34 58
REMARK SMILES IDX 4 60 2 61 1 62 3 63
REMARK H PARENT 6 4 14 9 18 14 22 17 22 18 24 21 12 26 12 27 27 32 38 37 46 42
REMARK H PARENT 42 47 42 48 32 55 35 56 35 57 34 59
ROOT
ATOM      1  C   ASN A   3      20.047  10.086  -6.453  1.00  0.00     0.243 C 
ATOM      2  O   ASN A   3      20.182   9.176  -5.589  1.00  0.00    -0.273 OA
ATOM      3  N   LEU A   4      20.563   9.921  -7.766  1.00  0.00    -0.342 N 
ATOM      4  H   UNL     1      20.392  10.661  -8.485  1.00  0.00     0.164 HD
ENDROOT
BRANCH   1   5
ATOM      5  CA  ASN A   3      19.316  11.340  -6.120  1.00  0.00     0.180 C 
BRANCH   5   6
ATOM      6  N   ASN A   3      18.038  10.992  -5.529  1.00  0.00    -0.342 N 
ATOM      7  C   GLY A   2      16.867  11.761  -5.739  1.00  0.00     0.240 C 
ATOM      8  O   GLY A   2      16.901  12.807  -6.445  1.00  0.00    -0.273 OA
ATOM      9  H   UNL     1      18.003  10.227  -4.815  1.00  0.00     0.164 HD
BRANCH   7  10
ATOM     10  CA  GLY A   2      15.631  11.331  -5.025  1.00  0.00     0.216 C 
BRANCH  10  11
ATOM     11  N   GLY A   2      14.438  11.726  -5.744  1.00  0.00    -0.346 N 
ATOM     12  C   SER A   1      13.906  13.043  -5.632  1.00  0.00     0.239 C 
ATOM     13  O   SER A   1      14.446  13.870  -4.845  1.00  0.00    -0.273 OA
ATOM     14  H   UNL     1      13.855  10.959  -6.145  1.00  0.00     0.164 HD
BRANCH  12  15
ATOM     15  CA  SER A   1      12.650  13.407  -6.384  1.00  0.00     0.167 C 
BRANCH  15  16
ATOM     16  N   SER A   1      12.469  14.861  -6.387  1.00  0.00    -0.318 NA
ATOM     17  H   UNL     1      12.333  15.181  -5.400  1.00  0.00     0.119 HD
ATOM     18  H   UNL     1      11.569  15.087  -6.868  1.00  0.00     0.119 HD
ENDBRANCH  15  16
BRANCH  15  19
ATOM     19  CB  SER A   1      12.698  12.883  -7.836  1.00  0.00     0.184 C 
BRANCH  19  20
ATOM     20  OG  SER A   1      11.445  13.029  -8.449  1.00  0.00    -0.394 OA
ATOM     21  H   UNL     1      11.468  13.879  -8.961  1.00  0.00     0.210 HD
ENDBRANCH  19  20
ENDBRANCH  15  19
ENDBRANCH  12  15
ENDBRANCH  10  11
ENDBRANCH   7  10
ENDBRANCH   5   6
BRANCH   5  22
ATOM     22  CB  ASN A   3      20.129  12.249  -5.186  1.00  0.00     0.134 C 
BRANCH  22  23
ATOM     23  CG  ASN A   3      20.391  11.648  -3.831  1.00  0.00     0.220 C 
ATOM     24  ND2 ASN A   3      19.418  11.751  -2.792  1.00  0.00    -0.370 N 
ATOM     25  OD1 ASN A   3      21.471  11.035  -3.615  1.00  0.00    -0.275 OA
ATOM     26  H   UNL     1      19.597  11.322  -1.857  1.00  0.00     0.159 HD
ATOM     27  H   UNL     1      18.519  12.257  -2.952  1.00  0.00     0.159 HD
ENDBRANCH  22  23
ENDBRANCH   5  22
ENDBRANCH   1   5
BRANCH   3  28
ATOM     28  CA  LEU A   4      21.348   8.760  -8.138  1.00  0.00     0.171 C 
BRANCH  28  29
ATOM     29  C   LEU A   4      22.712   9.217  -8.519  1.00  0.00     0.243 C 
ATOM     30  N   ARG A   5      23.822   8.720  -7.785  1.00  0.00    -0.343 N 
ATOM     31  O   LEU A   4      22.876  10.033  -9.467  1.00  0.00    -0.273 OA
ATOM     32  H   UNL     1      23.667   8.030  -7.015  1.00  0.00     0.164 HD
BRANCH  30  33
ATOM     33  CA  ARG A   5      25.185   9.122  -8.073  1.00  0.00     0.171 C 
BRANCH  33  34
ATOM     34  C   ARG A   5      25.900   7.968  -8.685  1.00  0.00     0.243 C 
ATOM     35  N   ASN A   6      25.913   7.864 -10.102  1.00  0.00    -0.341 N 
ATOM     36  O   ARG A   5      26.447   7.087  -7.969  1.00  0.00    -0.273 OA
ATOM     37  H   UNL     1      25.489   8.647 -10.651  1.00  0.00     0.164 HD
BRANCH  35  38
ATOM     38  CA  ASN A   6      26.542   6.751 -10.804  1.00  0.00     0.201 C 
BRANCH  38  39
ATOM     39  C   ASN A   6      27.993   6.642 -10.416  1.00  0.00     0.326 C 
ATOM     40  O   ASN A   6      28.794   7.579 -10.677  1.00  0.00    -0.250 OA
BRANCH  39  41
ATOM     41  OXT ASN A   6      28.451   5.499  -9.768  1.00  0.00    -0.480 OA
ATOM     42  H   UNL     1      29.424   5.409  -9.499  1.00  0.00     0.296 HD
ENDBRANCH  39  41
ENDBRANCH  38  39
BRANCH  38  43
ATOM     43  CB  ASN A   6      26.424   6.946 -12.323  1.00  0.00     0.136 C 
BRANCH  43  44
ATOM     44  CG  ASN A   6      25.010   7.180 -12.773  1.00  0.00     0.220 C 
ATOM     45  ND2 ASN A   6      24.753   8.090 -13.833  1.00  0.00    -0.370 N 
ATOM     46  OD1 ASN A   6      24.053   6.558 -12.243  1.00  0.00    -0.275 OA
ATOM     47  H   UNL     1      23.775   8.258 -14.156  1.00  0.00     0.159 HD
ATOM     48  H   UNL     1      25.533   8.600 -14.306  1.00  0.00     0.159 HD
ENDBRANCH  43  44
ENDBRANCH  38  43
ENDBRANCH  35  38
ENDBRANCH  33  34
BRANCH  33  49
ATOM     49  CB  ARG A   5      25.863   9.605  -6.795  1.00  0.00     0.037 C 
BRANCH  49  50
ATOM     50  CG  ARG A   5      25.166  10.859  -6.270  1.00  0.00     0.024 C 
BRANCH  50  51
ATOM     51  CD  ARG A   5      25.841  11.390  -5.013  1.00  0.00     0.116 C 
BRANCH  51  52
ATOM     52  NE  ARG A   5      25.377  10.687  -3.820  1.00  0.00    -0.357 N 
ATOM     53  CZ  ARG A   5      25.469  11.282  -2.526  1.00  0.00     0.185 C 
ATOM     54  NH2 ARG A   5      26.109  12.546  -2.351  1.00  0.00    -0.370 N 
ATOM     55  H   UNL     1      24.895   9.763  -3.912  1.00  0.00     0.163 HD
ATOM     56  H   UNL     1      26.699  12.981  -3.092  1.00  0.00     0.159 HD
ATOM     57  H   UNL     1      26.083  13.022  -1.422  1.00  0.00     0.159 HD
BRANCH  53  58
ATOM     58  NH1 ARG A   5      24.955  10.671  -1.506  1.00  0.00    -0.270 NA
ATOM     59  H   UNL     1      24.998  11.075  -0.544  1.00  0.00     0.191 HD
ENDBRANCH  53  58
ENDBRANCH  51  52
ENDBRANCH  50  51
ENDBRANCH  49  50
ENDBRANCH  33  49
ENDBRANCH  30  33
ENDBRANCH  28  29
BRANCH  28  60
ATOM     60  CB  LEU A   4      20.654   8.000  -9.270  1.00  0.00     0.038 C 
BRANCH  60  61
ATOM     61  CG  LEU A   4      21.448   6.772  -9.768  1.00  0.00    -0.015 C 
ATOM     62  CD1 LEU A   4      21.762   5.779  -8.639  1.00  0.00     0.007 C 
ATOM     63  CD2 LEU A   4      20.661   6.068 -10.877  1.00  0.00     0.007 C 
ENDBRANCH  60  61
ENDBRANCH  28  60
ENDBRANCH   3  28
TORSDOF 26
