REMARK SMILES CC(C)C[C@H](NC(=O)[C@H](Cc1ccccc1)NC(=O)[C@@H](N)CO)C(=O)N[C@@H](CO)C(=O)N[C@@H](Cc1c[nH]cn1)C(=O)N[C@@H](CC(N)=O)C(=O)O
REMARK SMILES IDX 24 1 25 2 26 3 5 5 6 6 7 7 8 8 9 10 17 11 18 12 19 13 20 15
REMARK SMILES IDX 21 16 22 19 23 20 10 22 11 23 12 24 16 25 13 26 15 27 14 28
REMARK SMILES IDX 4 29 2 30 1 31 3 32 27 33 30 34 32 35 31 36 33 38 40 39
REMARK SMILES IDX 42 40 41 41 43 43 48 44 49 45 50 46 44 48 45 49 46 50 47 51
REMARK SMILES IDX 34 54 35 55 39 56 36 57 38 58 37 59 28 61 29 62
REMARK H PARENT 26 4 6 9 17 14 21 17 21 18 23 21 32 37 42 42 50 47 46 52 46 53
REMARK H PARENT 37 60 29 63
ROOT
ATOM      1  C   LEU A   3      20.053  10.082  -6.477  1.00  0.00     0.243 C 
ATOM      2  O   LEU A   3      20.166   9.158  -5.625  1.00  0.00    -0.273 OA
ATOM      3  N   SER A   4      20.566   9.917  -7.786  1.00  0.00    -0.340 N 
ATOM      4  H   UNL     1      20.426  10.676  -8.492  1.00  0.00     0.164 HD
ENDROOT
BRANCH   1   5
ATOM      5  CA  LEU A   3      19.340  11.352  -6.146  1.00  0.00     0.171 C 
BRANCH   5   6
ATOM      6  N   LEU A   3      18.082  11.020  -5.537  1.00  0.00    -0.343 N 
ATOM      7  C   PHE A   2      16.886  11.745  -5.776  1.00  0.00     0.243 C 
ATOM      8  O   PHE A   2      16.905  12.796  -6.475  1.00  0.00    -0.273 OA
ATOM      9  H   UNL     1      18.154  10.388  -4.716  1.00  0.00     0.164 HD
BRANCH   7  10
ATOM     10  CA  PHE A   2      15.651  11.312  -5.057  1.00  0.00     0.175 C 
BRANCH  10  11
ATOM     11  N   PHE A   2      14.453  11.739  -5.768  1.00  0.00    -0.343 N 
ATOM     12  C   SER A   1      13.915  13.050  -5.636  1.00  0.00     0.239 C 
ATOM     13  O   SER A   1      14.449  13.869  -4.839  1.00  0.00    -0.273 OA
ATOM     14  H   UNL     1      13.863  11.000  -6.209  1.00  0.00     0.164 HD
BRANCH  12  15
ATOM     15  CA  SER A   1      12.655  13.410  -6.383  1.00  0.00     0.167 C 
BRANCH  15  16
ATOM     16  N   SER A   1      12.467  14.862  -6.382  1.00  0.00    -0.318 NA
ATOM     17  H   UNL     1      12.304  15.174  -5.396  1.00  0.00     0.119 HD
ATOM     18  H   UNL     1      11.581  15.087  -6.890  1.00  0.00     0.119 HD
ENDBRANCH  15  16
BRANCH  15  19
ATOM     19  CB  SER A   1      12.695  12.893  -7.842  1.00  0.00     0.184 C 
BRANCH  19  20
ATOM     20  OG  SER A   1      11.440  13.037  -8.449  1.00  0.00    -0.394 OA
ATOM     21  H   UNL     1      10.855  12.333  -8.065  1.00  0.00     0.210 HD
ENDBRANCH  19  20
ENDBRANCH  15  19
ENDBRANCH  12  15
ENDBRANCH  10  11
BRANCH  10  22
ATOM     22  CB  PHE A   2      15.609   9.773  -4.881  1.00  0.00     0.070 C 
BRANCH  22  23
ATOM     23  CG  PHE A   2      14.435   9.292  -4.092  1.00  0.00    -0.045 A 
ATOM     24  CD1 PHE A   2      13.898  10.048  -3.033  1.00  0.00     0.004 A 
ATOM     25  CD2 PHE A   2      13.964   7.991  -4.310  1.00  0.00     0.004 A 
ATOM     26  CE1 PHE A   2      12.866   9.535  -2.258  1.00  0.00     0.000 A 
ATOM     27  CE2 PHE A   2      12.937   7.476  -3.520  1.00  0.00     0.000 A 
ATOM     28  CZ  PHE A   2      12.384   8.251  -2.500  1.00  0.00     0.000 A 
ENDBRANCH  22  23
ENDBRANCH  10  22
ENDBRANCH   7  10
ENDBRANCH   5   6
BRANCH   5  29
ATOM     29  CB  LEU A   3      20.165  12.250  -5.214  1.00  0.00     0.038 C 
BRANCH  29  30
ATOM     30  CG  LEU A   3      20.407  11.678  -3.787  1.00  0.00    -0.015 C 
ATOM     31  CD1 LEU A   3      21.809  12.052  -3.309  1.00  0.00     0.007 C 
ATOM     32  CD2 LEU A   3      19.361  12.178  -2.782  1.00  0.00     0.007 C 
ENDBRANCH  29  30
ENDBRANCH   5  29
ENDBRANCH   1   5
BRANCH   3  33
ATOM     33  CA  SER A   4      21.343   8.751  -8.163  1.00  0.00     0.197 C 
BRANCH  33  34
ATOM     34  C   SER A   4      22.713   9.201  -8.535  1.00  0.00     0.245 C 
ATOM     35  N   HIS A   5      23.818   8.722  -7.781  1.00  0.00    -0.342 N 
ATOM     36  O   SER A   4      22.883  10.028  -9.472  1.00  0.00    -0.273 OA
ATOM     37  H   UNL     1      23.662   8.008  -7.032  1.00  0.00     0.164 HD
BRANCH  35  38
ATOM     38  CA  HIS A   5      25.181   9.130  -8.066  1.00  0.00     0.177 C 
BRANCH  38  39
ATOM     39  C   HIS A   5      25.901   7.976  -8.680  1.00  0.00     0.243 C 
ATOM     40  N   ASN A   6      25.914   7.870 -10.098  1.00  0.00    -0.340 N 
ATOM     41  O   HIS A   5      26.448   7.095  -7.964  1.00  0.00    -0.273 OA
ATOM     42  H   UNL     1      25.493   8.653 -10.648  1.00  0.00     0.164 HD
BRANCH  40  43
ATOM     43  CA  ASN A   6      26.541   6.754 -10.800  1.00  0.00     0.201 C 
BRANCH  43  44
ATOM     44  C   ASN A   6      27.992   6.643 -10.414  1.00  0.00     0.326 C 
ATOM     45  O   ASN A   6      28.795   7.579 -10.677  1.00  0.00    -0.250 OA
BRANCH  44  46
ATOM     46  OXT ASN A   6      28.450   5.500  -9.766  1.00  0.00    -0.480 OA
ATOM     47  H   UNL     1      29.423   5.409  -9.498  1.00  0.00     0.296 HD
ENDBRANCH  44  46
ENDBRANCH  43  44
BRANCH  43  48
ATOM     48  CB  ASN A   6      26.423   6.947 -12.320  1.00  0.00     0.136 C 
BRANCH  48  49
ATOM     49  CG  ASN A   6      25.009   7.182 -12.770  1.00  0.00     0.220 C 
ATOM     50  ND2 ASN A   6      24.754   8.089 -13.834  1.00  0.00    -0.370 N 
ATOM     51  OD1 ASN A   6      24.051   6.563 -12.237  1.00  0.00    -0.275 OA
ATOM     52  H   UNL     1      25.534   8.596 -14.308  1.00  0.00     0.159 HD
ATOM     53  H   UNL     1      23.775   8.257 -14.157  1.00  0.00     0.159 HD
ENDBRANCH  48  49
ENDBRANCH  43  48
ENDBRANCH  40  43
ENDBRANCH  38  39
BRANCH  38  54
ATOM     54  CB  HIS A   5      25.857   9.629  -6.789  1.00  0.00     0.093 C 
BRANCH  54  55
ATOM     55  CG  HIS A   5      25.192  10.859  -6.234  1.00  0.00     0.061 A 
ATOM     56  ND1 HIS A   5      24.448  11.726  -6.954  1.00  0.00    -0.242 NA
ATOM     57  CD2 HIS A   5      25.421  11.380  -4.980  1.00  0.00     0.107 A 
ATOM     58  CE1 HIS A   5      24.215  12.746  -6.102  1.00  0.00     0.196 A 
ATOM     59  NE2 HIS A   5      24.800  12.566  -4.903  1.00  0.00    -0.351 N 
ATOM     60  H   UNL     1      24.784  13.218  -4.088  1.00  0.00     0.167 HD
ENDBRANCH  54  55
ENDBRANCH  38  54
ENDBRANCH  35  38
ENDBRANCH  33  34
BRANCH  33  61
ATOM     61  CB  SER A   4      20.659   7.988  -9.297  1.00  0.00     0.191 C 
BRANCH  61  62
ATOM     62  OG  SER A   4      20.505   8.787 -10.441  1.00  0.00    -0.394 OA
ATOM     63  H   UNL     1      19.638   9.260 -10.349  1.00  0.00     0.210 HD
ENDBRANCH  61  62
ENDBRANCH  33  61
ENDBRANCH   3  33
TORSDOF 25
