REMARK SMILES CC(C)C[C@H](NC(=O)[C@H](CCCNC(=N)N)NC(=O)[C@H](Cc1ccccc1)NC(=O)[C@@H](N)CO)C(=O)NCC(=O)N[C@@H](CC(N)=O)C(=O)O
REMARK SMILES IDX 7 1 8 2 6 3 9 5 17 6 18 7 19 8 20 10 28 11 29 12 30 13 31 15
REMARK SMILES IDX 32 16 33 19 34 20 21 22 22 23 23 24 27 25 24 26 26 27 25 28
REMARK SMILES IDX 10 29 11 30 12 31 13 32 14 33 16 34 15 38 5 40 35 41 37 42
REMARK SMILES IDX 36 43 38 45 39 46 41 47 40 48 42 50 47 51 48 52 49 53 43 55
REMARK SMILES IDX 44 56 45 57 46 58 4 61 2 62 1 63 3 64
REMARK H PARENT 6 4 17 9 28 14 32 17 32 18 34 21 13 35 16 36 16 37 15 39 37 44
REMARK H PARENT 41 49 49 54 45 59 45 60
ROOT
ATOM      1  C   ARG A   3      20.038  10.082  -6.472  1.00  0.00     0.243 C 
ATOM      2  O   ARG A   3      20.148   9.160  -5.617  1.00  0.00    -0.273 OA
ATOM      3  N   LEU A   4      20.572   9.923  -7.776  1.00  0.00    -0.343 N 
ATOM      4  H   UNL     1      20.416  10.667  -8.494  1.00  0.00     0.164 HD
ENDROOT
BRANCH   1   5
ATOM      5  CA  ARG A   3      19.336  11.356  -6.141  1.00  0.00     0.171 C 
BRANCH   5   6
ATOM      6  N   ARG A   3      18.086  11.048  -5.498  1.00  0.00    -0.343 N 
ATOM      7  C   PHE A   2      16.884  11.750  -5.772  1.00  0.00     0.243 C 
ATOM      8  O   PHE A   2      16.901  12.792  -6.483  1.00  0.00    -0.273 OA
ATOM      9  H   UNL     1      18.163  10.513  -4.608  1.00  0.00     0.164 HD
BRANCH   7  10
ATOM     10  CA  PHE A   2      15.649  11.313  -5.059  1.00  0.00     0.175 C 
BRANCH  10  11
ATOM     11  N   PHE A   2      14.451  11.740  -5.769  1.00  0.00    -0.343 N 
ATOM     12  C   SER A   1      13.914  13.051  -5.636  1.00  0.00     0.239 C 
ATOM     13  O   SER A   1      14.449  13.870  -4.839  1.00  0.00    -0.273 OA
ATOM     14  H   UNL     1      13.858  11.001  -6.206  1.00  0.00     0.164 HD
BRANCH  12  15
ATOM     15  CA  SER A   1      12.655  13.411  -6.383  1.00  0.00     0.167 C 
BRANCH  15  16
ATOM     16  N   SER A   1      12.467  14.863  -6.382  1.00  0.00    -0.318 NA
ATOM     17  H   UNL     1      11.581  15.088  -6.891  1.00  0.00     0.119 HD
ATOM     18  H   UNL     1      12.304  15.175  -5.397  1.00  0.00     0.119 HD
ENDBRANCH  15  16
BRANCH  15  19
ATOM     19  CB  SER A   1      12.694  12.894  -7.842  1.00  0.00     0.184 C 
BRANCH  19  20
ATOM     20  OG  SER A   1      11.440  13.037  -8.449  1.00  0.00    -0.394 OA
ATOM     21  H   UNL     1      10.855  12.333  -8.065  1.00  0.00     0.210 HD
ENDBRANCH  19  20
ENDBRANCH  15  19
ENDBRANCH  12  15
ENDBRANCH  10  11
BRANCH  10  22
ATOM     22  CB  PHE A   2      15.611   9.774  -4.892  1.00  0.00     0.070 C 
BRANCH  22  23
ATOM     23  CG  PHE A   2      14.443   9.289  -4.090  1.00  0.00    -0.045 A 
ATOM     24  CD1 PHE A   2      13.903  10.046  -3.033  1.00  0.00     0.004 A 
ATOM     25  CD2 PHE A   2      13.968   7.989  -4.310  1.00  0.00     0.004 A 
ATOM     26  CE1 PHE A   2      12.869   9.535  -2.260  1.00  0.00     0.000 A 
ATOM     27  CE2 PHE A   2      12.939   7.477  -3.521  1.00  0.00     0.000 A 
ATOM     28  CZ  PHE A   2      12.386   8.252  -2.502  1.00  0.00     0.000 A 
ENDBRANCH  22  23
ENDBRANCH  10  22
ENDBRANCH   7  10
ENDBRANCH   5   6
BRANCH   5  29
ATOM     29  CB  ARG A   3      20.187  12.252  -5.237  1.00  0.00     0.037 C 
BRANCH  29  30
ATOM     30  CG  ARG A   3      20.425  11.699  -3.811  1.00  0.00     0.024 C 
BRANCH  30  31
ATOM     31  CD  ARG A   3      21.811  12.085  -3.295  1.00  0.00     0.116 C 
BRANCH  31  32
ATOM     32  NE  ARG A   3      21.973  13.539  -3.243  1.00  0.00    -0.357 N 
ATOM     33  CZ  ARG A   3      21.346  14.364  -2.250  1.00  0.00     0.185 C 
ATOM     34  NH2 ARG A   3      21.517  15.782  -2.300  1.00  0.00    -0.370 N 
ATOM     35  H   UNL     1      22.609  13.989  -3.939  1.00  0.00     0.163 HD
ATOM     36  H   UNL     1      22.088  16.219  -3.057  1.00  0.00     0.159 HD
ATOM     37  H   UNL     1      21.074  16.402  -1.585  1.00  0.00     0.159 HD
BRANCH  33  38
ATOM     38  NH1 ARG A   3      20.636  13.829  -1.306  1.00  0.00    -0.270 NA
ATOM     39  H   UNL     1      20.174  14.409  -0.571  1.00  0.00     0.191 HD
ENDBRANCH  33  38
ENDBRANCH  31  32
ENDBRANCH  30  31
ENDBRANCH  29  30
ENDBRANCH   5  29
ENDBRANCH   1   5
BRANCH   3  40
ATOM     40  CA  LEU A   4      21.358   8.762  -8.141  1.00  0.00     0.171 C 
BRANCH  40  41
ATOM     41  C   LEU A   4      22.728   9.219  -8.515  1.00  0.00     0.243 C 
ATOM     42  N   GLY A   5      23.834   8.755  -7.748  1.00  0.00    -0.345 N 
ATOM     43  O   LEU A   4      22.897  10.024  -9.471  1.00  0.00    -0.273 OA
ATOM     44  H   UNL     1      23.672   8.095  -6.953  1.00  0.00     0.164 HD
BRANCH  42  45
ATOM     45  CA  GLY A   5      25.205   9.125  -8.036  1.00  0.00     0.216 C 
BRANCH  45  46
ATOM     46  C   GLY A   5      25.895   7.974  -8.676  1.00  0.00     0.240 C 
ATOM     47  N   ASN A   6      25.905   7.875 -10.094  1.00  0.00    -0.341 N 
ATOM     48  O   GLY A   5      26.449   7.095  -7.964  1.00  0.00    -0.273 OA
ATOM     49  H   UNL     1      25.479   8.661 -10.637  1.00  0.00     0.164 HD
BRANCH  47  50
ATOM     50  CA  ASN A   6      26.536   6.760 -10.798  1.00  0.00     0.201 C 
BRANCH  50  51
ATOM     51  C   ASN A   6      27.987   6.647 -10.411  1.00  0.00     0.326 C 
ATOM     52  O   ASN A   6      28.792   7.579 -10.677  1.00  0.00    -0.250 OA
BRANCH  51  53
ATOM     53  OXT ASN A   6      28.442   5.504  -9.760  1.00  0.00    -0.480 OA
ATOM     54  H   UNL     1      29.414   5.410  -9.493  1.00  0.00     0.296 HD
ENDBRANCH  51  53
ENDBRANCH  50  51
BRANCH  50  55
ATOM     55  CB  ASN A   6      26.421   6.954 -12.318  1.00  0.00     0.136 C 
BRANCH  55  56
ATOM     56  CG  ASN A   6      25.008   7.183 -12.771  1.00  0.00     0.220 C 
ATOM     57  ND2 ASN A   6      24.752   8.091 -13.834  1.00  0.00    -0.370 N 
ATOM     58  OD1 ASN A   6      24.052   6.558 -12.243  1.00  0.00    -0.275 OA
ATOM     59  H   UNL     1      23.773   8.254 -14.160  1.00  0.00     0.159 HD
ATOM     60  H   UNL     1      25.531   8.602 -14.305  1.00  0.00     0.159 HD
ENDBRANCH  55  56
ENDBRANCH  50  55
ENDBRANCH  47  50
ENDBRANCH  45  46
ENDBRANCH  42  45
ENDBRANCH  40  41
BRANCH  40  61
ATOM     61  CB  LEU A   4      20.663   8.002  -9.274  1.00  0.00     0.038 C 
BRANCH  61  62
ATOM     62  CG  LEU A   4      21.452   6.771  -9.769  1.00  0.00    -0.015 C 
ATOM     63  CD1 LEU A   4      21.767   5.781  -8.638  1.00  0.00     0.007 C 
ATOM     64  CD2 LEU A   4      20.662   6.067 -10.875  1.00  0.00     0.007 C 
ENDBRANCH  61  62
ENDBRANCH  40  61
ENDBRANCH   3  40
TORSDOF 26
