REMARK SMILES CC(C)C[C@H](NC(=O)[C@@H](NC(=O)[C@@H](N)CO)C(C)C)C(=O)N[C@@H](CO)C(=O)N[C@@H](CCCNC(=N)N)C(=O)N[C@@H](CC(N)=O)C(=O)O
REMARK SMILES IDX 20 1 21 2 22 3 5 5 6 6 7 7 8 8 9 10 10 11 11 12 12 13 13 15
REMARK SMILES IDX 14 16 15 19 16 20 17 22 18 23 19 24 4 25 2 26 1 27 3 28
REMARK SMILES IDX 23 29 26 30 28 31 27 32 29 34 37 35 39 36 38 37 40 39 45 40
REMARK SMILES IDX 46 41 47 42 41 44 42 45 43 46 44 47 30 50 31 51 32 52 33 53
REMARK SMILES IDX 34 54 36 55 35 59 24 61 25 62
REMARK H PARENT 22 4 6 9 10 14 14 17 14 18 16 21 28 33 39 38 47 43 43 48 43 49
REMARK H PARENT 33 56 36 57 36 58 35 60 25 63
ROOT
ATOM      1  C   LEU A   3       1.514   0.843  -0.450  1.00  0.00     0.243 C 
ATOM      2  O   LEU A   3       1.312   1.345   0.691  1.00  0.00    -0.273 OA
ATOM      3  N   SER A   4       0.523   0.982  -1.479  1.00  0.00    -0.340 N 
ATOM      4  H   UNL     1       0.745   0.615  -2.433  1.00  0.00     0.164 HD
ENDROOT
BRANCH   1   5
ATOM      5  CA  LEU A   3       2.809   0.128  -0.751  1.00  0.00     0.171 C 
BRANCH   5   6
ATOM      6  N   LEU A   3       3.791   0.315   0.325  1.00  0.00    -0.343 N 
ATOM      7  C   VAL A   2       5.188   0.525   0.070  1.00  0.00     0.243 C 
ATOM      8  O   VAL A   2       5.609   0.611  -1.116  1.00  0.00    -0.273 OA
ATOM      9  H   UNL     1       3.486   0.182   1.317  1.00  0.00     0.164 HD
BRANCH   7  10
ATOM     10  CA  VAL A   2       6.148   0.672   1.226  1.00  0.00     0.173 C 
BRANCH  10  11
ATOM     11  N   VAL A   2       7.538   0.567   0.759  1.00  0.00    -0.343 N 
ATOM     12  C   SER A   1       8.376  -0.568   1.037  1.00  0.00     0.239 C 
ATOM     13  O   SER A   1       7.961  -1.503   1.777  1.00  0.00    -0.273 OA
ATOM     14  H   UNL     1       7.902   1.300   0.111  1.00  0.00     0.164 HD
BRANCH  12  15
ATOM     15  CA  SER A   1       9.771  -0.639   0.459  1.00  0.00     0.167 C 
BRANCH  15  16
ATOM     16  N   SER A   1      10.778  -0.613   1.524  1.00  0.00    -0.318 NA
ATOM     17  H   UNL     1      10.600  -1.398   2.192  1.00  0.00     0.119 HD
ATOM     18  H   UNL     1      10.675   0.281   2.060  1.00  0.00     0.119 HD
ENDBRANCH  15  16
BRANCH  15  19
ATOM     19  CB  SER A   1       9.936  -1.899  -0.400  1.00  0.00     0.184 C 
BRANCH  19  20
ATOM     20  OG  SER A   1      11.201  -1.898  -1.002  1.00  0.00    -0.394 OA
ATOM     21  H   UNL     1      11.248  -2.727  -1.545  1.00  0.00     0.210 HD
ENDBRANCH  19  20
ENDBRANCH  15  19
ENDBRANCH  12  15
ENDBRANCH  10  11
BRANCH  10  22
ATOM     22  CB  VAL A   2       5.912   1.998   2.000  1.00  0.00     0.015 C 
ATOM     23  CG1 VAL A   2       6.115   3.254   1.135  1.00  0.00     0.010 C 
ATOM     24  CG2 VAL A   2       6.801   2.068   3.250  1.00  0.00     0.010 C 
ENDBRANCH  10  22
ENDBRANCH   7  10
ENDBRANCH   5   6
BRANCH   5  25
ATOM     25  CB  LEU A   3       2.605  -1.375  -1.064  1.00  0.00     0.038 C 
BRANCH  25  26
ATOM     26  CG  LEU A   3       2.370  -2.307   0.155  1.00  0.00    -0.015 C 
ATOM     27  CD1 LEU A   3       1.020  -2.049   0.841  1.00  0.00     0.007 C 
ATOM     28  CD2 LEU A   3       2.443  -3.773  -0.296  1.00  0.00     0.007 C 
ENDBRANCH  25  26
ENDBRANCH   5  25
ENDBRANCH   1   5
BRANCH   3  29
ATOM     29  CA  SER A   4      -0.850   1.409  -1.198  1.00  0.00     0.197 C 
BRANCH  29  30
ATOM     30  C   SER A   4      -1.714   0.202  -0.944  1.00  0.00     0.245 C 
ATOM     31  N   ARG A   5      -2.691   0.223   0.110  1.00  0.00    -0.342 N 
ATOM     32  O   SER A   4      -1.611  -0.806  -1.696  1.00  0.00    -0.273 OA
ATOM     33  H   UNL     1      -2.787   1.108   0.651  1.00  0.00     0.164 HD
BRANCH  31  34
ATOM     34  CA  ARG A   5      -3.745  -0.793   0.225  1.00  0.00     0.171 C 
BRANCH  34  35
ATOM     35  C   ARG A   5      -4.963  -0.400  -0.576  1.00  0.00     0.243 C 
ATOM     36  N   ASN A   6      -6.064  -1.313  -0.711  1.00  0.00    -0.341 N 
ATOM     37  O   ARG A   5      -4.987   0.709  -1.177  1.00  0.00    -0.273 OA
ATOM     38  H   UNL     1      -6.012  -2.239  -0.229  1.00  0.00     0.164 HD
BRANCH  36  39
ATOM     39  CA  ASN A   6      -7.269  -1.002  -1.486  1.00  0.00     0.201 C 
BRANCH  39  40
ATOM     40  C   ASN A   6      -8.439  -0.836  -0.557  1.00  0.00     0.326 C 
ATOM     41  O   ASN A   6      -8.652  -1.677   0.357  1.00  0.00    -0.250 OA
BRANCH  40  42
ATOM     42  OXT ASN A   6      -9.310   0.235  -0.730  1.00  0.00    -0.480 OA
ATOM     43  H   UNL     1     -10.115   0.357  -0.126  1.00  0.00     0.296 HD
ENDBRANCH  40  42
ENDBRANCH  39  40
BRANCH  39  44
ATOM     44  CB  ASN A   6      -7.525  -2.121  -2.509  1.00  0.00     0.136 C 
BRANCH  44  45
ATOM     45  CG  ASN A   6      -8.630  -1.759  -3.460  1.00  0.00     0.220 C 
ATOM     46  ND2 ASN A   6      -8.388  -0.852  -4.535  1.00  0.00    -0.370 N 
ATOM     47  OD1 ASN A   6      -9.785  -2.232  -3.289  1.00  0.00    -0.275 OA
ATOM     48  H   UNL     1      -9.163  -0.580  -5.178  1.00  0.00     0.159 HD
ATOM     49  H   UNL     1      -7.442  -0.435  -4.676  1.00  0.00     0.159 HD
ENDBRANCH  44  45
ENDBRANCH  39  44
ENDBRANCH  36  39
ENDBRANCH  34  35
BRANCH  34  50
ATOM     50  CB  ARG A   5      -4.054  -1.127   1.706  1.00  0.00     0.037 C 
BRANCH  50  51
ATOM     51  CG  ARG A   5      -4.480   0.036   2.629  1.00  0.00     0.024 C 
BRANCH  51  52
ATOM     52  CD  ARG A   5      -5.892   0.585   2.358  1.00  0.00     0.116 C 
BRANCH  52  53
ATOM     53  NE  ARG A   5      -5.867   1.733   1.451  1.00  0.00    -0.357 N 
ATOM     54  CZ  ARG A   5      -7.069   2.391   1.030  1.00  0.00     0.185 C 
ATOM     55  NH2 ARG A   5      -7.008   3.396   0.015  1.00  0.00    -0.370 N 
ATOM     56  H   UNL     1      -4.956   2.095   1.088  1.00  0.00     0.163 HD
ATOM     57  H   UNL     1      -6.099   3.631  -0.443  1.00  0.00     0.159 HD
ATOM     58  H   UNL     1      -7.869   3.899  -0.294  1.00  0.00     0.159 HD
BRANCH  54  59
ATOM     59  NH1 ARG A   5      -8.206   2.081   1.570  1.00  0.00    -0.270 NA
ATOM     60  H   UNL     1      -9.096   2.546   1.284  1.00  0.00     0.191 HD
ENDBRANCH  54  59
ENDBRANCH  52  53
ENDBRANCH  51  52
ENDBRANCH  50  51
ENDBRANCH  34  50
ENDBRANCH  31  34
ENDBRANCH  29  30
BRANCH  29  61
ATOM     61  CB  SER A   4      -1.398   2.222  -2.376  1.00  0.00     0.191 C 
BRANCH  61  62
ATOM     62  OG  SER A   4      -2.663   2.736  -2.056  1.00  0.00    -0.394 OA
ATOM     63  H   UNL     1      -2.984   3.204  -2.868  1.00  0.00     0.210 HD
ENDBRANCH  61  62
ENDBRANCH  29  61
ENDBRANCH   3  29
TORSDOF 27
