REMARK SMILES CC[C@H](C)[C@H](NC(=O)[C@H](CC(N)=O)NC(=O)[C@@H](N)CO)C(=O)N[C@@H](CC(C)C)C(=O)N[C@@H](CCCNC(=N)N)C(=O)N[C@@H](CC(N)=O)C(=O)O
REMARK SMILES IDX 21 1 22 2 23 3 5 5 6 6 7 7 8 8 9 10 14 11 15 12 16 13 17 15
REMARK SMILES IDX 18 16 19 19 20 20 10 22 11 23 12 24 13 25 3 28 4 29 2 30
REMARK SMILES IDX 1 31 24 32 29 33 31 34 30 35 32 37 40 38 42 39 41 40 43 42
REMARK SMILES IDX 48 43 49 44 50 45 44 47 45 48 46 49 47 50 33 53 34 54 35 55
REMARK SMILES IDX 36 56 37 57 39 58 38 62 25 64 26 65 27 66 28 67
REMARK H PARENT 23 4 6 9 14 14 18 17 18 18 20 21 12 26 12 27 31 36 42 41 50 46
REMARK H PARENT 46 51 46 52 36 59 39 60 39 61 38 63
ROOT
ATOM      1  C   ILE A   3      20.027  10.082  -6.469  1.00  0.00     0.243 C 
ATOM      2  O   ILE A   3      20.143   9.160  -5.615  1.00  0.00    -0.273 OA
ATOM      3  N   LEU A   4      20.562   9.924  -7.773  1.00  0.00    -0.343 N 
ATOM      4  H   UNL     1      20.406  10.669  -8.491  1.00  0.00     0.164 HD
ENDROOT
BRANCH   1   5
ATOM      5  CA  ILE A   3      19.324  11.358  -6.132  1.00  0.00     0.174 C 
BRANCH   5   6
ATOM      6  N   ILE A   3      18.077  11.046  -5.474  1.00  0.00    -0.342 N 
ATOM      7  C   ASN A   2      16.869  11.741  -5.741  1.00  0.00     0.243 C 
ATOM      8  O   ASN A   2      16.877  12.775  -6.467  1.00  0.00    -0.273 OA
ATOM      9  H   UNL     1      18.153  10.501  -4.589  1.00  0.00     0.164 HD
BRANCH   7  10
ATOM     10  CA  ASN A   2      15.622  11.282  -5.040  1.00  0.00     0.180 C 
BRANCH  10  11
ATOM     11  N   ASN A   2      14.439  11.728  -5.760  1.00  0.00    -0.342 N 
ATOM     12  C   SER A   1      13.914  13.044  -5.631  1.00  0.00     0.239 C 
ATOM     13  O   SER A   1      14.452  13.860  -4.833  1.00  0.00    -0.273 OA
ATOM     14  H   UNL     1      13.855  11.001  -6.227  1.00  0.00     0.164 HD
BRANCH  12  15
ATOM     15  CA  SER A   1      12.661  13.413  -6.388  1.00  0.00     0.167 C 
BRANCH  15  16
ATOM     16  N   SER A   1      12.460  14.864  -6.395  1.00  0.00    -0.318 NA
ATOM     17  H   UNL     1      12.294  15.191  -5.416  1.00  0.00     0.119 HD
ATOM     18  H   UNL     1      13.322  15.337  -6.753  1.00  0.00     0.119 HD
ENDBRANCH  15  16
BRANCH  15  19
ATOM     19  CB  SER A   1      12.691  12.893  -7.843  1.00  0.00     0.184 C 
BRANCH  19  20
ATOM     20  OG  SER A   1      11.436  13.051  -8.444  1.00  0.00    -0.394 OA
ATOM     21  H   UNL     1      11.379  13.995  -8.746  1.00  0.00     0.210 HD
ENDBRANCH  19  20
ENDBRANCH  15  19
ENDBRANCH  12  15
ENDBRANCH  10  11
BRANCH  10  22
ATOM     22  CB  ASN A   2      15.583   9.738  -4.918  1.00  0.00     0.134 C 
BRANCH  22  23
ATOM     23  CG  ASN A   2      14.420   9.282  -4.093  1.00  0.00     0.220 C 
ATOM     24  ND2 ASN A   2      13.286   8.672  -4.709  1.00  0.00    -0.370 N 
ATOM     25  OD1 ASN A   2      14.433   9.455  -2.845  1.00  0.00    -0.275 OA
ATOM     26  H   UNL     1      13.251   8.523  -5.742  1.00  0.00     0.159 HD
ATOM     27  H   UNL     1      12.473   8.367  -4.129  1.00  0.00     0.159 HD
ENDBRANCH  22  23
ENDBRANCH  10  22
ENDBRANCH   7  10
ENDBRANCH   5   6
BRANCH   5  28
ATOM     28  CB  ILE A   3      20.200  12.260  -5.238  1.00  0.00     0.018 C 
ATOM     29  CG1 ILE A   3      19.643  13.692  -5.172  1.00  0.00     0.010 C 
BRANCH  28  30
ATOM     30  CG2 ILE A   3      20.431  11.699  -3.807  1.00  0.00     0.002 C 
ATOM     31  CD1 ILE A   3      21.817  12.069  -3.296  1.00  0.00     0.004 C 
ENDBRANCH  28  30
ENDBRANCH   5  28
ENDBRANCH   1   5
BRANCH   3  32
ATOM     32  CA  LEU A   4      21.347   8.762  -8.140  1.00  0.00     0.171 C 
BRANCH  32  33
ATOM     33  C   LEU A   4      22.713   9.217  -8.521  1.00  0.00     0.243 C 
ATOM     34  N   ARG A   5      23.822   8.721  -7.786  1.00  0.00    -0.343 N 
ATOM     35  O   LEU A   4      22.877  10.033  -9.469  1.00  0.00    -0.273 OA
ATOM     36  H   UNL     1      23.666   8.031  -7.015  1.00  0.00     0.164 HD
BRANCH  34  37
ATOM     37  CA  ARG A   5      25.185   9.122  -8.073  1.00  0.00     0.171 C 
BRANCH  37  38
ATOM     38  C   ARG A   5      25.900   7.968  -8.685  1.00  0.00     0.243 C 
ATOM     39  N   ASN A   6      25.913   7.864 -10.102  1.00  0.00    -0.341 N 
ATOM     40  O   ARG A   5      26.447   7.087  -7.969  1.00  0.00    -0.273 OA
ATOM     41  H   UNL     1      25.489   8.647 -10.651  1.00  0.00     0.164 HD
BRANCH  39  42
ATOM     42  CA  ASN A   6      26.542   6.751 -10.804  1.00  0.00     0.201 C 
BRANCH  42  43
ATOM     43  C   ASN A   6      27.993   6.642 -10.416  1.00  0.00     0.326 C 
ATOM     44  O   ASN A   6      28.794   7.579 -10.677  1.00  0.00    -0.250 OA
BRANCH  43  45
ATOM     45  OXT ASN A   6      28.451   5.499  -9.768  1.00  0.00    -0.480 OA
ATOM     46  H   UNL     1      29.424   5.409  -9.499  1.00  0.00     0.296 HD
ENDBRANCH  43  45
ENDBRANCH  42  43
BRANCH  42  47
ATOM     47  CB  ASN A   6      26.424   6.946 -12.323  1.00  0.00     0.136 C 
BRANCH  47  48
ATOM     48  CG  ASN A   6      25.010   7.180 -12.773  1.00  0.00     0.220 C 
ATOM     49  ND2 ASN A   6      24.753   8.090 -13.833  1.00  0.00    -0.370 N 
ATOM     50  OD1 ASN A   6      24.053   6.558 -12.243  1.00  0.00    -0.275 OA
ATOM     51  H   UNL     1      23.775   8.258 -14.156  1.00  0.00     0.159 HD
ATOM     52  H   UNL     1      25.533   8.600 -14.306  1.00  0.00     0.159 HD
ENDBRANCH  47  48
ENDBRANCH  42  47
ENDBRANCH  39  42
ENDBRANCH  37  38
BRANCH  37  53
ATOM     53  CB  ARG A   5      25.862   9.606  -6.796  1.00  0.00     0.037 C 
BRANCH  53  54
ATOM     54  CG  ARG A   5      25.166  10.861  -6.271  1.00  0.00     0.024 C 
BRANCH  54  55
ATOM     55  CD  ARG A   5      25.839  11.392  -5.014  1.00  0.00     0.116 C 
BRANCH  55  56
ATOM     56  NE  ARG A   5      25.378  10.684  -3.823  1.00  0.00    -0.357 N 
ATOM     57  CZ  ARG A   5      25.468  11.279  -2.527  1.00  0.00     0.185 C 
ATOM     58  NH2 ARG A   5      26.105  12.541  -2.350  1.00  0.00    -0.370 N 
ATOM     59  H   UNL     1      24.901   9.759  -3.922  1.00  0.00     0.163 HD
ATOM     60  H   UNL     1      26.692  12.983  -3.090  1.00  0.00     0.159 HD
ATOM     61  H   UNL     1      26.080  13.008  -1.415  1.00  0.00     0.159 HD
BRANCH  57  62
ATOM     62  NH1 ARG A   5      24.956  10.679  -1.500  1.00  0.00    -0.270 NA
ATOM     63  H   UNL     1      24.474   9.757  -1.584  1.00  0.00     0.191 HD
ENDBRANCH  57  62
ENDBRANCH  55  56
ENDBRANCH  54  55
ENDBRANCH  53  54
ENDBRANCH  37  53
ENDBRANCH  34  37
ENDBRANCH  32  33
BRANCH  32  64
ATOM     64  CB  LEU A   4      20.654   8.000  -9.272  1.00  0.00     0.038 C 
BRANCH  64  65
ATOM     65  CG  LEU A   4      21.448   6.772  -9.768  1.00  0.00    -0.015 C 
ATOM     66  CD1 LEU A   4      21.762   5.779  -8.639  1.00  0.00     0.007 C 
ATOM     67  CD2 LEU A   4      20.661   6.068 -10.877  1.00  0.00     0.007 C 
ENDBRANCH  64  65
ENDBRANCH  32  64
ENDBRANCH   3  32
TORSDOF 28
