REMARK SMILES CC(C)C[C@H](NC(=O)CNC(=O)[C@@H](N)CO)C(=O)N[C@@H](CO)C(=O)N[C@@H](CCCNC(=N)N)C(=O)N[C@@H](CC(N)=O)C(=O)O
REMARK SMILES IDX 17 1 18 2 19 3 5 5 6 6 7 7 8 8 9 10 10 11 11 12 12 13 13 15
REMARK SMILES IDX 14 16 15 19 16 20 4 22 2 23 1 24 3 25 20 26 23 27 25 28
REMARK SMILES IDX 24 29 26 31 34 32 36 33 35 34 37 36 42 37 43 38 44 39 38 41
REMARK SMILES IDX 39 42 40 43 41 44 27 47 28 48 29 49 30 50 31 51 33 52 32 56
REMARK SMILES IDX 21 58 22 59
REMARK H PARENT 19 4 6 9 10 14 14 17 14 18 16 21 25 30 36 35 44 40 40 45 40 46
REMARK H PARENT 30 53 33 54 33 55 32 57 22 60
ROOT
ATOM      1  C   LEU A   3      20.058  10.070  -6.434  1.00  0.00     0.243 C 
ATOM      2  O   LEU A   3      20.207   9.169  -5.566  1.00  0.00    -0.273 OA
ATOM      3  N   SER A   4      20.565   9.905  -7.754  1.00  0.00    -0.340 N 
ATOM      4  H   UNL     1      20.407  10.657  -8.464  1.00  0.00     0.164 HD
ENDROOT
BRANCH   1   5
ATOM      5  CA  LEU A   3      19.307  11.310  -6.116  1.00  0.00     0.171 C 
BRANCH   5   6
ATOM      6  N   LEU A   3      18.039  10.984  -5.499  1.00  0.00    -0.343 N 
ATOM      7  C   GLY A   2      16.869  11.755  -5.724  1.00  0.00     0.240 C 
ATOM      8  O   GLY A   2      16.907  12.799  -6.435  1.00  0.00    -0.273 OA
ATOM      9  H   UNL     1      17.981  10.166  -4.851  1.00  0.00     0.164 HD
BRANCH   7  10
ATOM     10  CA  GLY A   2      15.627  11.329  -5.019  1.00  0.00     0.216 C 
BRANCH  10  11
ATOM     11  N   GLY A   2      14.439  11.726  -5.744  1.00  0.00    -0.346 N 
ATOM     12  C   SER A   1      13.906  13.043  -5.633  1.00  0.00     0.239 C 
ATOM     13  O   SER A   1      14.445  13.870  -4.846  1.00  0.00    -0.273 OA
ATOM     14  H   UNL     1      13.856  10.959  -6.146  1.00  0.00     0.164 HD
BRANCH  12  15
ATOM     15  CA  SER A   1      12.651  13.405  -6.387  1.00  0.00     0.167 C 
BRANCH  15  16
ATOM     16  N   SER A   1      12.468  14.858  -6.389  1.00  0.00    -0.318 NA
ATOM     17  H   UNL     1      11.587  15.086  -6.904  1.00  0.00     0.119 HD
ATOM     18  H   UNL     1      12.299  15.172  -5.405  1.00  0.00     0.119 HD
ENDBRANCH  15  16
BRANCH  15  19
ATOM     19  CB  SER A   1      12.700  12.882  -7.838  1.00  0.00     0.184 C 
BRANCH  19  20
ATOM     20  OG  SER A   1      11.445  13.034  -8.442  1.00  0.00    -0.394 OA
ATOM     21  H   UNL     1      11.556  12.755  -9.388  1.00  0.00     0.210 HD
ENDBRANCH  19  20
ENDBRANCH  15  19
ENDBRANCH  12  15
ENDBRANCH  10  11
ENDBRANCH   7  10
ENDBRANCH   5   6
BRANCH   5  22
ATOM     22  CB  LEU A   3      20.126  12.330  -5.308  1.00  0.00     0.038 C 
BRANCH  22  23
ATOM     23  CG  LEU A   3      20.417  12.199  -3.789  1.00  0.00    -0.015 C 
ATOM     24  CD1 LEU A   3      21.811  11.747  -3.394  1.00  0.00     0.007 C 
ATOM     25  CD2 LEU A   3      19.284  11.861  -2.838  1.00  0.00     0.007 C 
ENDBRANCH  22  23
ENDBRANCH   5  22
ENDBRANCH   1   5
BRANCH   3  26
ATOM     26  CA  SER A   4      21.342   8.746  -8.149  1.00  0.00     0.197 C 
BRANCH  26  27
ATOM     27  C   SER A   4      22.711   9.199  -8.528  1.00  0.00     0.245 C 
ATOM     28  N   ARG A   5      23.819   8.705  -7.790  1.00  0.00    -0.342 N 
ATOM     29  O   SER A   4      22.878  10.033  -9.460  1.00  0.00    -0.273 OA
ATOM     30  H   UNL     1      23.665   7.981  -7.051  1.00  0.00     0.164 HD
BRANCH  28  31
ATOM     31  CA  ARG A   5      25.182   9.117  -8.071  1.00  0.00     0.171 C 
BRANCH  31  32
ATOM     32  C   ARG A   5      25.902   7.968  -8.685  1.00  0.00     0.243 C 
ATOM     33  N   ASN A   6      25.916   7.866 -10.102  1.00  0.00    -0.341 N 
ATOM     34  O   ARG A   5      26.450   7.087  -7.970  1.00  0.00    -0.273 OA
ATOM     35  H   UNL     1      25.495   8.651 -10.651  1.00  0.00     0.164 HD
BRANCH  33  36
ATOM     36  CA  ASN A   6      26.543   6.751 -10.804  1.00  0.00     0.201 C 
BRANCH  36  37
ATOM     37  C   ASN A   6      27.994   6.642 -10.417  1.00  0.00     0.326 C 
ATOM     38  O   ASN A   6      28.795   7.579 -10.677  1.00  0.00    -0.250 OA
BRANCH  37  39
ATOM     39  OXT ASN A   6      28.453   5.497  -9.773  1.00  0.00    -0.480 OA
ATOM     40  H   UNL     1      29.426   5.407  -9.505  1.00  0.00     0.296 HD
ENDBRANCH  37  39
ENDBRANCH  36  37
BRANCH  36  41
ATOM     41  CB  ASN A   6      26.424   6.946 -12.323  1.00  0.00     0.136 C 
BRANCH  41  42
ATOM     42  CG  ASN A   6      25.009   7.181 -12.772  1.00  0.00     0.220 C 
ATOM     43  ND2 ASN A   6      24.753   8.089 -13.834  1.00  0.00    -0.370 N 
ATOM     44  OD1 ASN A   6      24.051   6.563 -12.237  1.00  0.00    -0.275 OA
ATOM     45  H   UNL     1      25.533   8.595 -14.309  1.00  0.00     0.159 HD
ATOM     46  H   UNL     1      23.774   8.259 -14.156  1.00  0.00     0.159 HD
ENDBRANCH  41  42
ENDBRANCH  36  41
ENDBRANCH  33  36
ENDBRANCH  31  32
BRANCH  31  47
ATOM     47  CB  ARG A   5      25.856   9.600  -6.792  1.00  0.00     0.037 C 
BRANCH  47  48
ATOM     48  CG  ARG A   5      25.162  10.857  -6.270  1.00  0.00     0.024 C 
BRANCH  48  49
ATOM     49  CD  ARG A   5      25.837  11.390  -5.014  1.00  0.00     0.116 C 
BRANCH  49  50
ATOM     50  NE  ARG A   5      25.375  10.687  -3.820  1.00  0.00    -0.357 N 
ATOM     51  CZ  ARG A   5      25.468  11.282  -2.526  1.00  0.00     0.185 C 
ATOM     52  NH2 ARG A   5      26.108  12.546  -2.352  1.00  0.00    -0.370 N 
ATOM     53  H   UNL     1      24.889   9.765  -3.911  1.00  0.00     0.163 HD
ATOM     54  H   UNL     1      26.082  13.023  -1.423  1.00  0.00     0.159 HD
ATOM     55  H   UNL     1      26.696  12.982  -3.094  1.00  0.00     0.159 HD
BRANCH  51  56
ATOM     56  NH1 ARG A   5      24.954  10.672  -1.506  1.00  0.00    -0.270 NA
ATOM     57  H   UNL     1      24.996  11.076  -0.544  1.00  0.00     0.191 HD
ENDBRANCH  51  56
ENDBRANCH  49  50
ENDBRANCH  48  49
ENDBRANCH  47  48
ENDBRANCH  31  47
ENDBRANCH  28  31
ENDBRANCH  26  27
BRANCH  26  58
ATOM     58  CB  SER A   4      20.651   7.991  -9.285  1.00  0.00     0.191 C 
BRANCH  58  59
ATOM     59  OG  SER A   4      20.419   8.825 -10.391  1.00  0.00    -0.394 OA
ATOM     60  H   UNL     1      21.171   8.683 -11.024  1.00  0.00     0.210 HD
ENDBRANCH  58  59
ENDBRANCH  26  58
ENDBRANCH   3  26
TORSDOF 26
