REMARK SMILES CC(C)C[C@H](NC(=O)[C@H](CCC(N)=O)NC(=O)[C@@H](N)CO)C(=O)NCC(=O)N[C@@H](CCCNC(=N)N)C(=O)N[C@@H](CC(N)=O)C(=O)O
REMARK SMILES IDX 22 1 23 2 24 3 5 5 6 6 7 7 8 8 9 10 15 11 16 12 17 13 18 15
REMARK SMILES IDX 19 16 20 19 21 20 10 22 11 23 12 24 13 25 14 26 4 29 2 30
REMARK SMILES IDX 1 31 3 32 25 33 26 34 28 35 27 36 29 38 37 39 39 40 38 41
REMARK SMILES IDX 40 43 45 44 46 45 47 46 41 48 42 49 43 50 44 51 30 54 31 55
REMARK SMILES IDX 32 56 33 57 34 58 36 59 35 63
REMARK H PARENT 24 4 6 9 15 14 19 17 19 18 21 21 13 27 13 28 28 37 39 42 47 47
REMARK H PARENT 43 52 43 53 33 60 36 61 36 62 35 64
ROOT
ATOM      1  C   LEU A   3      20.053  10.076  -6.480  1.00  0.00     0.243 C 
ATOM      2  O   LEU A   3      20.177   9.150  -5.632  1.00  0.00    -0.273 OA
ATOM      3  N   GLY A   4      20.560   9.917  -7.794  1.00  0.00    -0.345 N 
ATOM      4  H   UNL     1      20.398  10.669  -8.503  1.00  0.00     0.164 HD
ENDROOT
BRANCH   1   5
ATOM      5  CA  LEU A   3      19.332  11.344  -6.139  1.00  0.00     0.171 C 
BRANCH   5   6
ATOM      6  N   LEU A   3      18.076  11.009  -5.519  1.00  0.00    -0.343 N 
ATOM      7  C   GLN A   2      16.878  11.737  -5.742  1.00  0.00     0.243 C 
ATOM      8  O   GLN A   2      16.895  12.786  -6.446  1.00  0.00    -0.273 OA
ATOM      9  H   UNL     1      18.150  10.372  -4.701  1.00  0.00     0.164 HD
BRANCH   7  10
ATOM     10  CA  GLN A   2      15.626  11.284  -5.040  1.00  0.00     0.171 C 
BRANCH  10  11
ATOM     11  N   GLN A   2      14.450  11.734  -5.771  1.00  0.00    -0.343 N 
ATOM     12  C   SER A   1      13.915  13.046  -5.637  1.00  0.00     0.239 C 
ATOM     13  O   SER A   1      14.444  13.863  -4.834  1.00  0.00    -0.273 OA
ATOM     14  H   UNL     1      13.900  11.014  -6.284  1.00  0.00     0.164 HD
BRANCH  12  15
ATOM     15  CA  SER A   1      12.662  13.410  -6.391  1.00  0.00     0.167 C 
BRANCH  15  16
ATOM     16  N   SER A   1      12.473  14.862  -6.373  1.00  0.00    -0.318 NA
ATOM     17  H   UNL     1      11.541  15.089  -6.791  1.00  0.00     0.119 HD
ATOM     18  H   UNL     1      13.205  15.319  -6.965  1.00  0.00     0.119 HD
ENDBRANCH  15  16
BRANCH  15  19
ATOM     19  CB  SER A   1      12.685  12.886  -7.850  1.00  0.00     0.184 C 
BRANCH  19  20
ATOM     20  OG  SER A   1      11.432  13.054  -8.452  1.00  0.00    -0.394 OA
ATOM     21  H   UNL     1      10.829  12.373  -8.054  1.00  0.00     0.210 HD
ENDBRANCH  19  20
ENDBRANCH  15  19
ENDBRANCH  12  15
ENDBRANCH  10  11
BRANCH  10  22
ATOM     22  CB  GLN A   2      15.573   9.738  -4.915  1.00  0.00     0.045 C 
BRANCH  22  23
ATOM     23  CG  GLN A   2      14.391   9.271  -4.071  1.00  0.00     0.102 C 
BRANCH  23  24
ATOM     24  CD  GLN A   2      14.359   7.774  -3.983  1.00  0.00     0.217 C 
ATOM     25  NE2 GLN A   2      13.778   7.003  -5.034  1.00  0.00    -0.370 N 
ATOM     26  OE1 GLN A   2      14.882   7.192  -2.996  1.00  0.00    -0.275 OA
ATOM     27  H   UNL     1      13.361   7.470  -5.869  1.00  0.00     0.159 HD
ATOM     28  H   UNL     1      13.768   5.960  -4.979  1.00  0.00     0.159 HD
ENDBRANCH  23  24
ENDBRANCH  22  23
ENDBRANCH  10  22
ENDBRANCH   7  10
ENDBRANCH   5   6
BRANCH   5  29
ATOM     29  CB  LEU A   3      20.160  12.247  -5.216  1.00  0.00     0.038 C 
BRANCH  29  30
ATOM     30  CG  LEU A   3      20.416  11.677  -3.791  1.00  0.00    -0.015 C 
ATOM     31  CD1 LEU A   3      21.819  12.065  -3.319  1.00  0.00     0.007 C 
ATOM     32  CD2 LEU A   3      19.370  12.169  -2.779  1.00  0.00     0.007 C 
ENDBRANCH  29  30
ENDBRANCH   5  29
ENDBRANCH   1   5
BRANCH   3  33
ATOM     33  CA  GLY A   4      21.332   8.760  -8.201  1.00  0.00     0.216 C 
BRANCH  33  34
ATOM     34  C   GLY A   4      22.706   9.206  -8.539  1.00  0.00     0.240 C 
ATOM     35  N   ARG A   5      23.806   8.709  -7.788  1.00  0.00    -0.343 N 
ATOM     36  O   GLY A   4      22.885  10.031  -9.475  1.00  0.00    -0.273 OA
ATOM     37  H   UNL     1      23.639   7.993  -7.045  1.00  0.00     0.164 HD
BRANCH  35  38
ATOM     38  CA  ARG A   5      25.174   9.114  -8.068  1.00  0.00     0.171 C 
BRANCH  38  39
ATOM     39  C   ARG A   5      25.896   7.965  -8.684  1.00  0.00     0.243 C 
ATOM     40  N   ASN A   6      25.915   7.866 -10.101  1.00  0.00    -0.341 N 
ATOM     41  O   ARG A   5      26.447   7.086  -7.969  1.00  0.00    -0.273 OA
ATOM     42  H   UNL     1      25.495   8.652 -10.649  1.00  0.00     0.164 HD
BRANCH  40  43
ATOM     43  CA  ASN A   6      26.543   6.751 -10.803  1.00  0.00     0.201 C 
BRANCH  43  44
ATOM     44  C   ASN A   6      27.993   6.642 -10.416  1.00  0.00     0.326 C 
ATOM     45  O   ASN A   6      28.795   7.579 -10.677  1.00  0.00    -0.250 OA
BRANCH  44  46
ATOM     46  OXT ASN A   6      28.452   5.499  -9.769  1.00  0.00    -0.480 OA
ATOM     47  H   UNL     1      29.425   5.409  -9.501  1.00  0.00     0.296 HD
ENDBRANCH  44  46
ENDBRANCH  43  44
BRANCH  43  48
ATOM     48  CB  ASN A   6      26.424   6.947 -12.323  1.00  0.00     0.136 C 
BRANCH  48  49
ATOM     49  CG  ASN A   6      25.010   7.182 -12.772  1.00  0.00     0.220 C 
ATOM     50  ND2 ASN A   6      24.754   8.089 -13.834  1.00  0.00    -0.370 N 
ATOM     51  OD1 ASN A   6      24.051   6.563 -12.238  1.00  0.00    -0.275 OA
ATOM     52  H   UNL     1      25.534   8.596 -14.309  1.00  0.00     0.159 HD
ATOM     53  H   UNL     1      23.775   8.257 -14.157  1.00  0.00     0.159 HD
ENDBRANCH  48  49
ENDBRANCH  43  48
ENDBRANCH  40  43
ENDBRANCH  38  39
BRANCH  38  54
ATOM     54  CB  ARG A   5      25.851   9.597  -6.790  1.00  0.00     0.037 C 
BRANCH  54  55
ATOM     55  CG  ARG A   5      25.163  10.859  -6.271  1.00  0.00     0.024 C 
BRANCH  55  56
ATOM     56  CD  ARG A   5      25.838  11.390  -5.015  1.00  0.00     0.116 C 
BRANCH  56  57
ATOM     57  NE  ARG A   5      25.377  10.684  -3.823  1.00  0.00    -0.357 N 
ATOM     58  CZ  ARG A   5      25.468  11.279  -2.527  1.00  0.00     0.185 C 
ATOM     59  NH2 ARG A   5      26.105  12.541  -2.350  1.00  0.00    -0.370 N 
ATOM     60  H   UNL     1      24.897   9.760  -3.921  1.00  0.00     0.163 HD
ATOM     61  H   UNL     1      26.081  13.008  -1.416  1.00  0.00     0.159 HD
ATOM     62  H   UNL     1      26.692  12.982  -3.091  1.00  0.00     0.159 HD
BRANCH  58  63
ATOM     63  NH1 ARG A   5      24.956  10.680  -1.500  1.00  0.00    -0.270 NA
ATOM     64  H   UNL     1      24.474   9.757  -1.584  1.00  0.00     0.191 HD
ENDBRANCH  58  63
ENDBRANCH  56  57
ENDBRANCH  55  56
ENDBRANCH  54  55
ENDBRANCH  38  54
ENDBRANCH  35  38
ENDBRANCH  33  34
ENDBRANCH   3  33
TORSDOF 27
