REMARK SMILES N=C(N)NCCC[C@H](NC(=O)[C@H](Cc1ccccc1)NC(=O)[C@H](CCCNC(=N)N)NC(=O)[C@H](Cc1ccccc1)NC(=O)[C@@H](N)CO)C(=O)N[C@@H](CC(N)=O)C(=O)O
REMARK SMILES IDX 21 1 22 2 20 3 23 5 31 6 32 7 33 8 34 10 42 11 43 12 44 13
REMARK SMILES IDX 45 15 46 16 47 19 48 20 35 22 36 23 37 24 41 25 38 26 40 27
REMARK SMILES IDX 39 28 24 29 25 30 26 31 27 32 28 33 30 34 29 38 12 40 10 41
REMARK SMILES IDX 9 42 11 43 8 45 49 46 51 47 50 48 52 50 57 51 58 52 59 53
REMARK SMILES IDX 53 55 54 56 55 57 56 58 7 61 6 62 5 63 4 64 2 65 3 66 1 70
REMARK SMILES IDX 13 72 14 73 15 74 19 75 16 76 18 77 17 78
REMARK H PARENT 20 4 31 9 42 14 46 17 46 18 48 21 27 35 30 36 30 37 29 39 9 44
REMARK H PARENT 51 49 59 54 55 59 55 60 4 67 3 68 3 69 1 71
ROOT
ATOM      1  C   ARG A   3      -1.598  -1.127   0.591  1.00  0.00     0.243 C 
ATOM      2  O   ARG A   3      -1.417   0.019   1.084  1.00  0.00    -0.273 OA
ATOM      3  N   PHE A   4      -0.504  -2.054   0.498  1.00  0.00    -0.342 N 
ATOM      4  H   UNL     1      -0.718  -3.012   0.150  1.00  0.00     0.164 HD
ENDROOT
BRANCH   1   5
ATOM      5  CA  ARG A   3      -2.944  -1.505   0.017  1.00  0.00     0.171 C 
BRANCH   5   6
ATOM      6  N   ARG A   3      -4.041  -1.040   0.879  1.00  0.00    -0.343 N 
ATOM      7  C   PHE A   2      -4.405   0.334   1.102  1.00  0.00     0.243 C 
ATOM      8  O   PHE A   2      -3.827   1.265   0.477  1.00  0.00    -0.273 OA
ATOM      9  H   UNL     1      -4.595  -1.775   1.373  1.00  0.00     0.164 HD
BRANCH   7  10
ATOM     10  CA  PHE A   2      -5.520   0.665   2.059  1.00  0.00     0.175 C 
BRANCH  10  11
ATOM     11  N   PHE A   2      -5.347   2.018   2.597  1.00  0.00    -0.343 N 
ATOM     12  C   SER A   1      -4.471   2.287   3.699  1.00  0.00     0.239 C 
ATOM     13  O   SER A   1      -3.869   1.339   4.275  1.00  0.00    -0.273 OA
ATOM     14  H   UNL     1      -5.708   2.830   2.050  1.00  0.00     0.164 HD
BRANCH  12  15
ATOM     15  CA  SER A   1      -4.211   3.713   4.126  1.00  0.00     0.167 C 
BRANCH  15  16
ATOM     16  N   SER A   1      -4.270   3.848   5.583  1.00  0.00    -0.318 NA
ATOM     17  H   UNL     1      -5.215   3.538   5.907  1.00  0.00     0.119 HD
ATOM     18  H   UNL     1      -3.558   3.219   6.026  1.00  0.00     0.119 HD
ENDBRANCH  15  16
BRANCH  15  19
ATOM     19  CB  SER A   1      -2.849   4.194   3.607  1.00  0.00     0.184 C 
BRANCH  19  20
ATOM     20  OG  SER A   1      -2.795   4.134   2.206  1.00  0.00    -0.394 OA
ATOM     21  H   UNL     1      -3.354   4.883   1.868  1.00  0.00     0.210 HD
ENDBRANCH  19  20
ENDBRANCH  15  19
ENDBRANCH  12  15
ENDBRANCH  10  11
BRANCH  10  22
ATOM     22  CB  PHE A   2      -6.910   0.489   1.417  1.00  0.00     0.070 C 
BRANCH  22  23
ATOM     23  CG  PHE A   2      -7.106   1.301   0.161  1.00  0.00    -0.045 A 
ATOM     24  CD1 PHE A   2      -6.698   0.791  -1.082  1.00  0.00     0.004 A 
ATOM     25  CD2 PHE A   2      -7.693   2.574   0.222  1.00  0.00     0.004 A 
ATOM     26  CE1 PHE A   2      -6.866   1.546  -2.245  1.00  0.00     0.000 A 
ATOM     27  CE2 PHE A   2      -7.856   3.330  -0.941  1.00  0.00     0.000 A 
ATOM     28  CZ  PHE A   2      -7.442   2.818  -2.173  1.00  0.00     0.000 A 
ENDBRANCH  22  23
ENDBRANCH  10  22
ENDBRANCH   7  10
ENDBRANCH   5   6
BRANCH   5  29
ATOM     29  CB  ARG A   3      -3.127  -1.027  -1.441  1.00  0.00     0.037 C 
BRANCH  29  30
ATOM     30  CG  ARG A   3      -2.131  -1.637  -2.448  1.00  0.00     0.024 C 
BRANCH  30  31
ATOM     31  CD  ARG A   3      -2.382  -3.127  -2.721  1.00  0.00     0.116 C 
BRANCH  31  32
ATOM     32  NE  ARG A   3      -1.498  -3.612  -3.784  1.00  0.00    -0.357 N 
ATOM     33  CZ  ARG A   3      -1.526  -4.959  -4.287  1.00  0.00     0.185 C 
ATOM     34  NH2 ARG A   3      -0.637  -5.332  -5.338  1.00  0.00    -0.370 N 
ATOM     35  H   UNL     1      -0.792  -2.963  -4.197  1.00  0.00     0.163 HD
ATOM     36  H   UNL     1      -0.639  -6.303  -5.724  1.00  0.00     0.159 HD
ATOM     37  H   UNL     1       0.048  -4.643  -5.718  1.00  0.00     0.159 HD
BRANCH  33  38
ATOM     38  NH1 ARG A   3      -2.329  -5.851  -3.797  1.00  0.00    -0.270 NA
ATOM     39  H   UNL     1      -3.002  -5.660  -3.024  1.00  0.00     0.191 HD
ENDBRANCH  33  38
ENDBRANCH  31  32
ENDBRANCH  30  31
ENDBRANCH  29  30
ENDBRANCH   5  29
ENDBRANCH   1   5
BRANCH   3  40
ATOM     40  CA  PHE A   4       0.873  -1.723   0.898  1.00  0.00     0.175 C 
BRANCH  40  41
ATOM     41  C   PHE A   4       1.441  -0.587   0.068  1.00  0.00     0.243 C 
ATOM     42  N   ARG A   5       2.711  -0.023   0.421  1.00  0.00    -0.343 N 
ATOM     43  O   PHE A   4       0.823  -0.155  -0.944  1.00  0.00    -0.273 OA
ATOM     44  H   UNL     1       3.212  -0.429   1.245  1.00  0.00     0.164 HD
BRANCH  42  45
ATOM     45  CA  ARG A   5       3.355   1.019  -0.386  1.00  0.00     0.171 C 
BRANCH  45  46
ATOM     46  C   ARG A   5       4.865   0.952  -0.288  1.00  0.00     0.243 C 
ATOM     47  N   ASN A   6       5.660   1.481  -1.360  1.00  0.00    -0.341 N 
ATOM     48  O   ARG A   5       5.428   0.454   0.730  1.00  0.00    -0.273 OA
ATOM     49  H   UNL     1       5.170   1.922  -2.175  1.00  0.00     0.164 HD
BRANCH  47  50
ATOM     50  CA  ASN A   6       7.126   1.405  -1.353  1.00  0.00     0.201 C 
BRANCH  50  51
ATOM     51  C   ASN A   6       7.683   2.342  -0.318  1.00  0.00     0.326 C 
ATOM     52  O   ASN A   6       7.294   3.543  -0.271  1.00  0.00    -0.250 OA
BRANCH  51  53
ATOM     53  OXT ASN A   6       8.641   1.885   0.580  1.00  0.00    -0.480 OA
ATOM     54  H   UNL     1       9.025   2.502   1.284  1.00  0.00     0.296 HD
ENDBRANCH  51  53
ENDBRANCH  50  51
BRANCH  50  55
ATOM     55  CB  ASN A   6       7.681   1.736  -2.749  1.00  0.00     0.136 C 
BRANCH  55  56
ATOM     56  CG  ASN A   6       9.156   1.476  -2.832  1.00  0.00     0.220 C 
ATOM     57  ND2 ASN A   6       9.641   0.150  -3.041  1.00  0.00    -0.370 N 
ATOM     58  OD1 ASN A   6       9.973   2.426  -2.693  1.00  0.00    -0.275 OA
ATOM     59  H   UNL     1      10.666  -0.037  -3.081  1.00  0.00     0.159 HD
ATOM     60  H   UNL     1       8.980  -0.651  -3.137  1.00  0.00     0.159 HD
ENDBRANCH  55  56
ENDBRANCH  50  55
ENDBRANCH  47  50
ENDBRANCH  45  46
BRANCH  45  61
ATOM     61  CB  ARG A   5       2.815   2.422  -0.032  1.00  0.00     0.037 C 
BRANCH  61  62
ATOM     62  CG  ARG A   5       3.154   2.932   1.386  1.00  0.00     0.024 C 
BRANCH  62  63
ATOM     63  CD  ARG A   5       2.311   2.281   2.507  1.00  0.00     0.116 C 
BRANCH  63  64
ATOM     64  NE  ARG A   5       3.051   1.230   3.212  1.00  0.00    -0.357 N 
ATOM     65  CZ  ARG A   5       2.408   0.307   4.103  1.00  0.00     0.185 C 
ATOM     66  NH2 ARG A   5       3.173  -0.733   4.717  1.00  0.00    -0.370 N 
ATOM     67  H   UNL     1       4.078   1.114   3.048  1.00  0.00     0.163 HD
ATOM     68  H   UNL     1       2.713  -1.424   5.356  1.00  0.00     0.159 HD
ATOM     69  H   UNL     1       4.199  -0.821   4.538  1.00  0.00     0.159 HD
BRANCH  65  70
ATOM     70  NH1 ARG A   5       1.139   0.409   4.345  1.00  0.00    -0.270 NA
ATOM     71  H   UNL     1       0.649  -0.255   4.984  1.00  0.00     0.191 HD
ENDBRANCH  65  70
ENDBRANCH  63  64
ENDBRANCH  62  63
ENDBRANCH  61  62
ENDBRANCH  45  61
ENDBRANCH  42  45
ENDBRANCH  40  41
BRANCH  40  72
ATOM     72  CB  PHE A   4       1.781  -2.977   0.834  1.00  0.00     0.070 C 
BRANCH  72  73
ATOM     73  CG  PHE A   4       1.938  -3.550  -0.560  1.00  0.00    -0.045 A 
ATOM     74  CD1 PHE A   4       2.850  -2.985  -1.472  1.00  0.00     0.004 A 
ATOM     75  CD2 PHE A   4       1.170  -4.657  -0.960  1.00  0.00     0.004 A 
ATOM     76  CE1 PHE A   4       2.969  -3.505  -2.768  1.00  0.00     0.000 A 
ATOM     77  CE2 PHE A   4       1.296  -5.176  -2.254  1.00  0.00     0.000 A 
ATOM     78  CZ  PHE A   4       2.190  -4.599  -3.158  1.00  0.00     0.000 A 
ENDBRANCH  72  73
ENDBRANCH  40  72
ENDBRANCH   3  40
TORSDOF 31
