REMARK SMILES CC(C)C[C@H](NC(=O)[C@H](Cc1ccccc1)NC(=O)[C@@H](N)CO)C(=O)N[C@@H](CC(N)=O)C(=O)N[C@@H](CCCNC(=N)N)C(=O)N[C@@H](CCCCN)C(=O)O
REMARK SMILES IDX 32 1 33 2 34 3 27 5 26 6 24 7 25 8 5 10 6 11 7 12 8 13 9 15
REMARK SMILES IDX 17 16 18 17 19 18 20 20 21 21 22 24 23 25 10 27 11 28 12 29
REMARK SMILES IDX 16 30 13 31 15 32 14 33 4 34 2 35 1 36 3 37 28 38 29 39
REMARK SMILES IDX 30 40 31 41 35 44 43 45 45 46 44 47 46 49 52 50 53 51 54 52
REMARK SMILES IDX 47 54 48 55 49 56 50 57 51 58 36 61 37 62 38 63 39 64 40 65
REMARK SMILES IDX 42 66 41 70
REMARK H PARENT 34 4 26 9 6 14 17 19 21 22 21 23 23 26 30 42 30 43 45 48 54 53
REMARK H PARENT 51 59 51 60 39 67 42 68 42 69 41 71
ROOT
ATOM      1  C   ASN A   4      22.715   9.215  -8.523  1.00  0.00     0.243 C 
ATOM      2  O   ASN A   4      22.883  10.037  -9.465  1.00  0.00    -0.273 OA
ATOM      3  N   ARG A   5      23.821   8.717  -7.784  1.00  0.00    -0.343 N 
ATOM      4  H   UNL     1      23.663   7.998  -7.041  1.00  0.00     0.164 HD
ENDROOT
BRANCH   1   5
ATOM      5  CA  ASN A   4      21.350   8.747  -8.160  1.00  0.00     0.180 C 
BRANCH   5   6
ATOM      6  N   ASN A   4      20.562   9.908  -7.790  1.00  0.00    -0.342 N 
ATOM      7  C   LEU A   3      20.055  10.080  -6.478  1.00  0.00     0.243 C 
ATOM      8  O   LEU A   3      20.169   9.158  -5.624  1.00  0.00    -0.273 OA
ATOM      9  H   UNL     1      20.396  10.648  -8.510  1.00  0.00     0.164 HD
BRANCH   7  10
ATOM     10  CA  LEU A   3      19.342  11.351  -6.148  1.00  0.00     0.171 C 
BRANCH  10  11
ATOM     11  N   LEU A   3      18.084  11.019  -5.539  1.00  0.00    -0.343 N 
ATOM     12  C   PHE A   2      16.888  11.744  -5.776  1.00  0.00     0.243 C 
ATOM     13  O   PHE A   2      16.906  12.795  -6.474  1.00  0.00    -0.273 OA
ATOM     14  H   UNL     1      18.156  10.384  -4.719  1.00  0.00     0.164 HD
BRANCH  12  15
ATOM     15  CA  PHE A   2      15.653  11.312  -5.056  1.00  0.00     0.175 C 
BRANCH  15  16
ATOM     16  N   PHE A   2      14.456  11.739  -5.766  1.00  0.00    -0.343 N 
ATOM     17  C   SER A   1      13.919  13.049  -5.633  1.00  0.00     0.239 C 
ATOM     18  O   SER A   1      14.449  13.867  -4.832  1.00  0.00    -0.273 OA
ATOM     19  H   UNL     1      13.870  11.000  -6.213  1.00  0.00     0.164 HD
BRANCH  17  20
ATOM     20  CA  SER A   1      12.662  13.410  -6.386  1.00  0.00     0.167 C 
BRANCH  20  21
ATOM     21  N   SER A   1      12.455  14.860  -6.398  1.00  0.00    -0.318 NA
ATOM     22  H   UNL     1      13.316  15.336  -6.755  1.00  0.00     0.119 HD
ATOM     23  H   UNL     1      12.286  15.190  -5.420  1.00  0.00     0.119 HD
ENDBRANCH  20  21
BRANCH  20  24
ATOM     24  CB  SER A   1      12.690  12.886  -7.840  1.00  0.00     0.184 C 
BRANCH  24  25
ATOM     25  OG  SER A   1      11.438  13.053  -8.445  1.00  0.00    -0.394 OA
ATOM     26  H   UNL     1      10.839  12.361  -8.060  1.00  0.00     0.210 HD
ENDBRANCH  24  25
ENDBRANCH  20  24
ENDBRANCH  17  20
ENDBRANCH  15  16
BRANCH  15  27
ATOM     27  CB  PHE A   2      15.610   9.772  -4.880  1.00  0.00     0.070 C 
BRANCH  27  28
ATOM     28  CG  PHE A   2      14.435   9.292  -4.092  1.00  0.00    -0.045 A 
ATOM     29  CD1 PHE A   2      13.898  10.048  -3.033  1.00  0.00     0.004 A 
ATOM     30  CD2 PHE A   2      13.964   7.991  -4.310  1.00  0.00     0.004 A 
ATOM     31  CE1 PHE A   2      12.866   9.535  -2.258  1.00  0.00     0.000 A 
ATOM     32  CE2 PHE A   2      12.937   7.477  -3.520  1.00  0.00     0.000 A 
ATOM     33  CZ  PHE A   2      12.384   8.252  -2.500  1.00  0.00     0.000 A 
ENDBRANCH  27  28
ENDBRANCH  15  27
ENDBRANCH  12  15
ENDBRANCH  10  11
BRANCH  10  34
ATOM     34  CB  LEU A   3      20.165  12.251  -5.217  1.00  0.00     0.038 C 
BRANCH  34  35
ATOM     35  CG  LEU A   3      20.417  11.679  -3.792  1.00  0.00    -0.015 C 
ATOM     36  CD1 LEU A   3      21.819  12.066  -3.317  1.00  0.00     0.007 C 
ATOM     37  CD2 LEU A   3      19.369  12.169  -2.782  1.00  0.00     0.007 C 
ENDBRANCH  34  35
ENDBRANCH  10  34
ENDBRANCH   7  10
ENDBRANCH   5   6
BRANCH   5  38
ATOM     38  CB  ASN A   4      20.677   8.005  -9.318  1.00  0.00     0.134 C 
BRANCH  38  39
ATOM     39  CG  ASN A   4      21.386   6.737  -9.727  1.00  0.00     0.220 C 
ATOM     40  ND2 ASN A   4      20.741   5.832 -10.622  1.00  0.00    -0.370 N 
ATOM     41  OD1 ASN A   4      22.527   6.448  -9.277  1.00  0.00    -0.275 OA
ATOM     42  H   UNL     1      19.801   6.055 -11.018  1.00  0.00     0.159 HD
ATOM     43  H   UNL     1      21.205   4.936 -10.891  1.00  0.00     0.159 HD
ENDBRANCH  38  39
ENDBRANCH   5  38
ENDBRANCH   1   5
BRANCH   3  44
ATOM     44  CA  ARG A   5      25.185   9.120  -8.068  1.00  0.00     0.171 C 
BRANCH  44  45
ATOM     45  C   ARG A   5      25.900   7.967  -8.683  1.00  0.00     0.243 C 
ATOM     46  N   LYS A   6      25.923   7.877 -10.100  1.00  0.00    -0.341 N 
ATOM     47  O   ARG A   5      26.443   7.081  -7.970  1.00  0.00    -0.273 OA
ATOM     48  H   UNL     1      25.600   8.714 -10.635  1.00  0.00     0.164 HD
BRANCH  46  49
ATOM     49  CA  LYS A   6      26.536   6.762 -10.811  1.00  0.00     0.192 C 
BRANCH  49  50
ATOM     50  C   LYS A   6      27.986   6.641 -10.423  1.00  0.00     0.326 C 
ATOM     51  O   LYS A   6      28.793   7.575 -10.677  1.00  0.00    -0.250 OA
BRANCH  50  52
ATOM     52  OXT LYS A   6      28.438   5.490  -9.784  1.00  0.00    -0.480 OA
ATOM     53  H   UNL     1      29.410   5.392  -9.516  1.00  0.00     0.296 HD
ENDBRANCH  50  52
ENDBRANCH  49  50
BRANCH  49  54
ATOM     54  CB  LYS A   6      26.424   6.976 -12.331  1.00  0.00     0.037 C 
BRANCH  54  55
ATOM     55  CG  LYS A   6      24.987   7.163 -12.849  1.00  0.00     0.004 C 
BRANCH  55  56
ATOM     56  CD  LYS A   6      24.092   5.938 -12.610  1.00  0.00     0.015 C 
BRANCH  56  57
ATOM     57  CE  LYS A   6      22.858   5.924 -13.531  1.00  0.00     0.077 C 
BRANCH  57  58
ATOM     58  NZ  LYS A   6      22.059   7.147 -13.431  1.00  0.00    -0.330 NA
ATOM     59  H   UNL     1      22.552   7.917 -13.939  1.00  0.00     0.118 HD
ATOM     60  H   UNL     1      21.976   7.433 -12.430  1.00  0.00     0.118 HD
ENDBRANCH  57  58
ENDBRANCH  56  57
ENDBRANCH  55  56
ENDBRANCH  54  55
ENDBRANCH  49  54
ENDBRANCH  46  49
ENDBRANCH  44  45
BRANCH  44  61
ATOM     61  CB  ARG A   5      25.860   9.602  -6.790  1.00  0.00     0.037 C 
BRANCH  61  62
ATOM     62  CG  ARG A   5      25.165  10.859  -6.268  1.00  0.00     0.024 C 
BRANCH  62  63
ATOM     63  CD  ARG A   5      25.839  11.391  -5.012  1.00  0.00     0.116 C 
BRANCH  63  64
ATOM     64  NE  ARG A   5      25.378  10.686  -3.819  1.00  0.00    -0.357 N 
ATOM     65  CZ  ARG A   5      25.469  11.282  -2.526  1.00  0.00     0.185 C 
ATOM     66  NH2 ARG A   5      26.107  12.546  -2.351  1.00  0.00    -0.370 N 
ATOM     67  H   UNL     1      24.895   9.763  -3.911  1.00  0.00     0.163 HD
ATOM     68  H   UNL     1      26.079  13.024  -1.423  1.00  0.00     0.159 HD
ATOM     69  H   UNL     1      26.697  12.982  -3.092  1.00  0.00     0.159 HD
BRANCH  65  70
ATOM     70  NH1 ARG A   5      24.954  10.672  -1.506  1.00  0.00    -0.270 NA
ATOM     71  H   UNL     1      24.995  11.077  -0.544  1.00  0.00     0.191 HD
ENDBRANCH  65  70
ENDBRANCH  63  64
ENDBRANCH  62  63
ENDBRANCH  61  62
ENDBRANCH  44  61
ENDBRANCH   3  44
TORSDOF 31
