REMARK SMILES CC(C)C[C@H](NC(=O)[C@H](C)NC(=O)[C@@H](NC(=O)[C@@H](N)CO)C(C)C)C(=O)N[C@@H](CCCNC(=N)N)C(=O)N[C@@H](CC(N)=O)C(=O)O
REMARK SMILES IDX 7 1 8 2 6 3 9 5 10 6 11 7 12 8 13 9 14 11 15 12 16 13 17 14
REMARK SMILES IDX 18 16 19 17 20 20 21 21 22 23 23 24 24 25 5 26 25 27 27 28
REMARK SMILES IDX 26 29 28 31 36 32 38 33 37 34 39 36 44 37 45 38 46 39 40 41
REMARK SMILES IDX 41 42 42 43 43 44 29 47 30 48 31 49 32 50 33 51 35 52 34 56
REMARK SMILES IDX 4 58 2 59 1 60 3 61
REMARK H PARENT 6 4 11 10 15 15 19 18 19 19 21 22 27 30 38 35 46 40 42 45
REMARK H PARENT 42 46 32 53 35 54 35 55 34 57
ROOT
ATOM      1  C   ALA A   3       1.306  -0.195   0.454  1.00  0.00     0.242 C 
ATOM      2  O   ALA A   3       0.857  -0.225  -0.724  1.00  0.00    -0.273 OA
ATOM      3  N   LEU A   4       0.933  -1.215   1.391  1.00  0.00    -0.343 N 
ATOM      4  H   UNL     1       1.446  -1.269   2.302  1.00  0.00     0.164 HD
ENDROOT
BRANCH   1   5
ATOM      5  CA  ALA A   3       2.191   0.944   0.881  1.00  0.00     0.168 C 
ATOM      6  CB  ALA A   3       1.404   2.257   0.868  1.00  0.00     0.041 C 
BRANCH   5   7
ATOM      7  N   ALA A   3       3.345   1.036  -0.016  1.00  0.00    -0.343 N 
ATOM      8  C   VAL A   2       4.540   0.268   0.199  1.00  0.00     0.243 C 
ATOM      9  O   VAL A   2       4.685  -0.399   1.260  1.00  0.00    -0.273 OA
ATOM     10  H   UNL     1       3.235   1.546  -0.922  1.00  0.00     0.164 HD
BRANCH   8  11
ATOM     11  CA  VAL A   2       5.628   0.250  -0.846  1.00  0.00     0.173 C 
BRANCH  11  12
ATOM     12  N   VAL A   2       6.861   0.774  -0.246  1.00  0.00    -0.343 N 
ATOM     13  C   SER A   1       7.633   1.832  -0.834  1.00  0.00     0.239 C 
ATOM     14  O   SER A   1       7.335   2.282  -1.974  1.00  0.00    -0.273 OA
ATOM     15  H   UNL     1       7.230   0.304   0.614  1.00  0.00     0.164 HD
BRANCH  13  16
ATOM     16  CA  SER A   1       8.836   2.383  -0.108  1.00  0.00     0.167 C 
BRANCH  16  17
ATOM     17  N   SER A   1      10.074   1.927  -0.743  1.00  0.00    -0.318 NA
ATOM     18  H   UNL     1      10.059   2.174  -1.761  1.00  0.00     0.119 HD
ATOM     19  H   UNL     1      10.112   0.884  -0.679  1.00  0.00     0.119 HD
ENDBRANCH  16  17
BRANCH  16  20
ATOM     20  CB  SER A   1       8.791   3.917  -0.059  1.00  0.00     0.184 C 
BRANCH  20  21
ATOM     21  OG  SER A   1       9.806   4.409   0.771  1.00  0.00    -0.394 OA
ATOM     22  H   UNL     1      10.647   4.388   0.244  1.00  0.00     0.210 HD
ENDBRANCH  20  21
ENDBRANCH  16  20
ENDBRANCH  13  16
ENDBRANCH  11  12
BRANCH  11  23
ATOM     23  CB  VAL A   2       5.857  -1.183  -1.397  1.00  0.00     0.015 C 
ATOM     24  CG1 VAL A   2       4.574  -1.767  -2.012  1.00  0.00     0.010 C 
ATOM     25  CG2 VAL A   2       6.979  -1.200  -2.447  1.00  0.00     0.010 C 
ENDBRANCH  11  23
ENDBRANCH   8  11
ENDBRANCH   5   7
ENDBRANCH   1   5
BRANCH   3  26
ATOM     26  CA  LEU A   4      -0.297  -1.995   1.225  1.00  0.00     0.171 C 
BRANCH  26  27
ATOM     27  C   LEU A   4      -1.466  -1.081   1.472  1.00  0.00     0.243 C 
ATOM     28  N   ARG A   5      -2.320  -0.686   0.386  1.00  0.00    -0.343 N 
ATOM     29  O   LEU A   4      -1.653  -0.611   2.629  1.00  0.00    -0.273 OA
ATOM     30  H   UNL     1      -2.149  -1.095  -0.559  1.00  0.00     0.164 HD
BRANCH  28  31
ATOM     31  CA  ARG A   5      -3.366   0.325   0.563  1.00  0.00     0.171 C 
BRANCH  31  32
ATOM     32  C   ARG A   5      -4.519  -0.281   1.319  1.00  0.00     0.243 C 
ATOM     33  N   ASN A   6      -5.235  -1.401   0.778  1.00  0.00    -0.341 N 
ATOM     34  O   ARG A   5      -4.834   0.191   2.446  1.00  0.00    -0.273 OA
ATOM     35  H   UNL     1      -4.984  -1.729  -0.180  1.00  0.00     0.164 HD
BRANCH  33  36
ATOM     36  CA  ASN A   6      -6.298  -2.083   1.528  1.00  0.00     0.201 C 
BRANCH  36  37
ATOM     37  C   ASN A   6      -6.524  -3.496   1.043  1.00  0.00     0.326 C 
ATOM     38  O   ASN A   6      -5.855  -3.978   0.087  1.00  0.00    -0.250 OA
BRANCH  37  39
ATOM     39  OXT ASN A   6      -7.463  -4.295   1.686  1.00  0.00    -0.480 OA
ATOM     40  H   UNL     1      -7.640  -5.245   1.378  1.00  0.00     0.296 HD
ENDBRANCH  37  39
ENDBRANCH  36  37
BRANCH  36  41
ATOM     41  CB  ASN A   6      -7.601  -1.258   1.497  1.00  0.00     0.136 C 
BRANCH  41  42
ATOM     42  CG  ASN A   6      -8.030  -0.865   0.107  1.00  0.00     0.220 C 
ATOM     43  ND2 ASN A   6      -8.438   0.478  -0.168  1.00  0.00    -0.370 N 
ATOM     44  OD1 ASN A   6      -8.090  -1.731  -0.805  1.00  0.00    -0.275 OA
ATOM     45  H   UNL     1      -8.786   0.740  -1.119  1.00  0.00     0.159 HD
ATOM     46  H   UNL     1      -8.441   1.207   0.582  1.00  0.00     0.159 HD
ENDBRANCH  41  42
ENDBRANCH  36  41
ENDBRANCH  33  36
ENDBRANCH  31  32
BRANCH  31  47
ATOM     47  CB  ARG A   5      -3.802   0.889  -0.807  1.00  0.00     0.037 C 
BRANCH  47  48
ATOM     48  CG  ARG A   5      -4.898   1.970  -0.731  1.00  0.00     0.024 C 
BRANCH  48  49
ATOM     49  CD  ARG A   5      -4.481   3.231   0.044  1.00  0.00     0.116 C 
BRANCH  49  50
ATOM     50  NE  ARG A   5      -3.241   3.802  -0.484  1.00  0.00    -0.357 N 
ATOM     51  CZ  ARG A   5      -3.175   4.526  -1.721  1.00  0.00     0.185 C 
ATOM     52  NH2 ARG A   5      -1.911   5.002  -2.193  1.00  0.00    -0.370 N 
ATOM     53  H   UNL     1      -2.370   3.703   0.086  1.00  0.00     0.163 HD
ATOM     54  H   UNL     1      -1.037   4.810  -1.653  1.00  0.00     0.159 HD
ATOM     55  H   UNL     1      -1.841   5.543  -3.083  1.00  0.00     0.159 HD
BRANCH  51  56
ATOM     56  NH1 ARG A   5      -4.253   4.758  -2.404  1.00  0.00    -0.270 NA
ATOM     57  H   UNL     1      -4.231   5.288  -3.303  1.00  0.00     0.191 HD
ENDBRANCH  51  56
ENDBRANCH  49  50
ENDBRANCH  48  49
ENDBRANCH  47  48
ENDBRANCH  31  47
ENDBRANCH  28  31
ENDBRANCH  26  27
BRANCH  26  58
ATOM     58  CB  LEU A   4      -0.292  -3.206   2.193  1.00  0.00     0.038 C 
BRANCH  58  59
ATOM     59  CG  LEU A   4      -1.381  -4.288   1.956  1.00  0.00    -0.015 C 
ATOM     60  CD1 LEU A   4      -1.314  -4.901   0.551  1.00  0.00     0.007 C 
ATOM     61  CD2 LEU A   4      -2.802  -3.806   2.271  1.00  0.00     0.007 C 
ENDBRANCH  58  59
ENDBRANCH  26  58
ENDBRANCH   3  26
TORSDOF 25
