REMARK SMILES CC(C)C[C@H](NC(=O)[C@H](CC(N)=O)NC(=O)[C@@H]1CCCN1C(=O)[C@@H](N)CO)C(=O)N[C@@H](CCCNC(=N)N)C(=O)N[C@@H](CC(N)=O)C(=O)O
REMARK SMILES IDX 7 1 8 2 6 3 9 5 14 6 15 7 16 8 17 10 21 11 20 12 18 13 19 14
REMARK SMILES IDX 22 15 23 16 24 17 25 18 26 21 27 22 10 24 11 25 12 26 13 27
REMARK SMILES IDX 5 30 28 31 30 32 29 33 31 35 39 36 41 37 40 38 42 40 47 41
REMARK SMILES IDX 48 42 49 43 43 45 44 46 45 47 46 48 32 51 33 52 34 53 35 54
REMARK SMILES IDX 36 55 38 56 37 60 4 62 2 63 1 64 3 65
REMARK H PARENT 6 4 14 9 25 19 25 20 27 23 12 28 12 29 30 34 41 39 49 44 45 49
REMARK H PARENT 45 50 35 57 38 58 38 59 37 61
ROOT
ATOM      1  C   ASN A   3      20.038  10.082  -6.449  1.00  0.00     0.243 C 
ATOM      2  O   ASN A   3      20.176   9.173  -5.586  1.00  0.00    -0.273 OA
ATOM      3  N   LEU A   4      20.561   9.922  -7.761  1.00  0.00    -0.342 N 
ATOM      4  H   UNL     1      20.392  10.663  -8.479  1.00  0.00     0.164 HD
ENDROOT
BRANCH   1   5
ATOM      5  CA  ASN A   3      19.302  11.335  -6.115  1.00  0.00     0.180 C 
BRANCH   5   6
ATOM      6  N   ASN A   3      18.014  10.994  -5.529  1.00  0.00    -0.342 N 
ATOM      7  C   PRO A   2      16.857  11.791  -5.741  1.00  0.00     0.243 C 
ATOM      8  O   PRO A   2      16.916  12.824  -6.462  1.00  0.00    -0.273 OA
ATOM      9  H   UNL     1      17.958  10.207  -4.842  1.00  0.00     0.164 HD
BRANCH   7  10
ATOM     10  CA  PRO A   2      15.560  11.380  -5.103  1.00  0.00     0.174 C 
ATOM     11  N   PRO A   2      14.919  12.530  -4.481  1.00  0.00    -0.329 N 
ATOM     12  CD  PRO A   2      13.703  12.933  -5.172  1.00  0.00     0.120 C 
ATOM     13  CB  PRO A   2      14.564  10.880  -6.150  1.00  0.00     0.037 C 
ATOM     14  CG  PRO A   2      13.618  12.049  -6.410  1.00  0.00     0.024 C 
BRANCH  11  15
ATOM     15  C   SER A   1      15.423  13.157  -3.284  1.00  0.00     0.242 C 
ATOM     16  O   SER A   1      16.465  12.698  -2.740  1.00  0.00    -0.273 OA
BRANCH  15  17
ATOM     17  CA  SER A   1      14.777  14.401  -2.708  1.00  0.00     0.167 C 
BRANCH  17  18
ATOM     18  N   SER A   1      14.839  14.405  -1.243  1.00  0.00    -0.318 NA
ATOM     19  H   UNL     1      15.836  14.379  -0.928  1.00  0.00     0.119 HD
ATOM     20  H   UNL     1      14.370  13.541  -0.885  1.00  0.00     0.119 HD
ENDBRANCH  17  18
BRANCH  17  21
ATOM     21  CB  SER A   1      15.459  15.653  -3.271  1.00  0.00     0.184 C 
BRANCH  21  22
ATOM     22  OG  SER A   1      14.813  16.800  -2.792  1.00  0.00    -0.394 OA
ATOM     23  H   UNL     1      15.297  17.573  -3.184  1.00  0.00     0.210 HD
ENDBRANCH  21  22
ENDBRANCH  17  21
ENDBRANCH  15  17
ENDBRANCH  11  15
ENDBRANCH   7  10
ENDBRANCH   5   6
BRANCH   5  24
ATOM     24  CB  ASN A   3      20.116  12.247  -5.183  1.00  0.00     0.134 C 
BRANCH  24  25
ATOM     25  CG  ASN A   3      20.387  11.645  -3.829  1.00  0.00     0.220 C 
ATOM     26  ND2 ASN A   3      21.629  10.994  -3.560  1.00  0.00    -0.370 N 
ATOM     27  OD1 ASN A   3      19.505  11.701  -2.931  1.00  0.00    -0.275 OA
ATOM     28  H   UNL     1      22.364  10.924  -4.297  1.00  0.00     0.159 HD
ATOM     29  H   UNL     1      21.813  10.575  -2.622  1.00  0.00     0.159 HD
ENDBRANCH  24  25
ENDBRANCH   5  24
ENDBRANCH   1   5
BRANCH   3  30
ATOM     30  CA  LEU A   4      21.346   8.762  -8.135  1.00  0.00     0.171 C 
BRANCH  30  31
ATOM     31  C   LEU A   4      22.712   9.218  -8.518  1.00  0.00     0.243 C 
ATOM     32  N   ARG A   5      23.822   8.720  -7.785  1.00  0.00    -0.343 N 
ATOM     33  O   LEU A   4      22.875  10.033  -9.466  1.00  0.00    -0.273 OA
ATOM     34  H   UNL     1      23.667   8.030  -7.015  1.00  0.00     0.164 HD
BRANCH  32  35
ATOM     35  CA  ARG A   5      25.185   9.122  -8.073  1.00  0.00     0.171 C 
BRANCH  35  36
ATOM     36  C   ARG A   5      25.899   7.968  -8.685  1.00  0.00     0.243 C 
ATOM     37  N   ASN A   6      25.913   7.864 -10.102  1.00  0.00    -0.341 N 
ATOM     38  O   ARG A   5      26.447   7.087  -7.969  1.00  0.00    -0.273 OA
ATOM     39  H   UNL     1      25.489   8.647 -10.651  1.00  0.00     0.164 HD
BRANCH  37  40
ATOM     40  CA  ASN A   6      26.542   6.751 -10.804  1.00  0.00     0.201 C 
BRANCH  40  41
ATOM     41  C   ASN A   6      27.993   6.642 -10.416  1.00  0.00     0.326 C 
ATOM     42  O   ASN A   6      28.794   7.579 -10.677  1.00  0.00    -0.250 OA
BRANCH  41  43
ATOM     43  OXT ASN A   6      28.451   5.498  -9.769  1.00  0.00    -0.480 OA
ATOM     44  H   UNL     1      29.424   5.408  -9.500  1.00  0.00     0.296 HD
ENDBRANCH  41  43
ENDBRANCH  40  41
BRANCH  40  45
ATOM     45  CB  ASN A   6      26.424   6.946 -12.323  1.00  0.00     0.136 C 
BRANCH  45  46
ATOM     46  CG  ASN A   6      25.010   7.180 -12.773  1.00  0.00     0.220 C 
ATOM     47  ND2 ASN A   6      24.753   8.090 -13.833  1.00  0.00    -0.370 N 
ATOM     48  OD1 ASN A   6      24.053   6.558 -12.243  1.00  0.00    -0.275 OA
ATOM     49  H   UNL     1      25.533   8.600 -14.306  1.00  0.00     0.159 HD
ATOM     50  H   UNL     1      23.775   8.258 -14.156  1.00  0.00     0.159 HD
ENDBRANCH  45  46
ENDBRANCH  40  45
ENDBRANCH  37  40
ENDBRANCH  35  36
BRANCH  35  51
ATOM     51  CB  ARG A   5      25.863   9.605  -6.796  1.00  0.00     0.037 C 
BRANCH  51  52
ATOM     52  CG  ARG A   5      25.168  10.860  -6.272  1.00  0.00     0.024 C 
BRANCH  52  53
ATOM     53  CD  ARG A   5      25.841  11.391  -5.014  1.00  0.00     0.116 C 
BRANCH  53  54
ATOM     54  NE  ARG A   5      25.377  10.687  -3.821  1.00  0.00    -0.357 N 
ATOM     55  CZ  ARG A   5      25.468  11.281  -2.527  1.00  0.00     0.185 C 
ATOM     56  NH2 ARG A   5      26.108  12.545  -2.351  1.00  0.00    -0.370 N 
ATOM     57  H   UNL     1      24.895   9.763  -3.913  1.00  0.00     0.163 HD
ATOM     58  H   UNL     1      26.698  12.981  -3.092  1.00  0.00     0.159 HD
ATOM     59  H   UNL     1      26.082  13.022  -1.422  1.00  0.00     0.159 HD
BRANCH  55  60
ATOM     60  NH1 ARG A   5      24.954  10.671  -1.507  1.00  0.00    -0.270 NA
ATOM     61  H   UNL     1      24.996  11.074  -0.545  1.00  0.00     0.191 HD
ENDBRANCH  55  60
ENDBRANCH  53  54
ENDBRANCH  52  53
ENDBRANCH  51  52
ENDBRANCH  35  51
ENDBRANCH  32  35
ENDBRANCH  30  31
BRANCH  30  62
ATOM     62  CB  LEU A   4      20.653   8.001  -9.269  1.00  0.00     0.038 C 
BRANCH  62  63
ATOM     63  CG  LEU A   4      21.447   6.773  -9.767  1.00  0.00    -0.015 C 
ATOM     64  CD1 LEU A   4      21.762   5.779  -8.639  1.00  0.00     0.007 C 
ATOM     65  CD2 LEU A   4      20.661   6.069 -10.876  1.00  0.00     0.007 C 
ENDBRANCH  62  63
ENDBRANCH  30  62
ENDBRANCH   3  30
TORSDOF 26
