REMARK SMILES CC(C)C[C@H](NC(=O)[C@@H]1CCCN1C(=O)[C@H](C)NC(=O)[C@@H](N)CO)C(=O)N[C@@H](CCCNC(=N)N)C(=O)N[C@@H](CC(N)=O)C(=O)O
REMARK SMILES IDX 7 1 8 2 6 3 9 5 13 6 12 7 10 8 11 9 14 10 15 11 16 12 17 13
REMARK SMILES IDX 18 14 19 15 20 16 21 18 22 19 23 22 24 23 5 25 25 26 27 27
REMARK SMILES IDX 26 28 28 30 36 31 38 32 37 33 39 35 44 36 45 37 46 38 40 40
REMARK SMILES IDX 41 41 42 42 43 43 29 46 30 47 31 48 32 49 33 50 35 51 34 55
REMARK SMILES IDX 4 57 2 58 1 59 3 60
REMARK H PARENT 6 4 18 17 22 20 22 21 24 24 27 29 38 34 46 39 42 44 42 45
REMARK H PARENT 32 52 35 53 35 54 34 56
ROOT
ATOM      1  C   PRO A   3       1.978   0.383   0.159  1.00  0.00     0.243 C 
ATOM      2  O   PRO A   3       1.716   0.003  -1.015  1.00  0.00    -0.273 OA
ATOM      3  N   LEU A   4       1.130   0.000   1.251  1.00  0.00    -0.343 N 
ATOM      4  H   UNL     1       1.171   0.591   2.111  1.00  0.00     0.164 HD
ENDROOT
BRANCH   1   5
ATOM      5  CA  PRO A   3       3.145   1.303   0.416  1.00  0.00     0.174 C 
ATOM      6  N   PRO A   3       4.157   1.168  -0.625  1.00  0.00    -0.329 N 
ATOM      7  CD  PRO A   3       4.297   2.375  -1.424  1.00  0.00     0.120 C 
ATOM      8  CB  PRO A   3       2.714   2.770   0.381  1.00  0.00     0.037 C 
ATOM      9  CG  PRO A   3       3.176   3.301  -0.971  1.00  0.00     0.024 C 
BRANCH   6  10
ATOM     10  C   ALA A   2       4.955  -0.021  -0.796  1.00  0.00     0.245 C 
ATOM     11  O   ALA A   2       4.775  -1.003  -0.025  1.00  0.00    -0.272 OA
BRANCH  10  12
ATOM     12  CA  ALA A   2       5.949  -0.151  -1.926  1.00  0.00     0.168 C 
ATOM     13  CB  ALA A   2       5.251  -0.728  -3.161  1.00  0.00     0.041 C 
BRANCH  12  14
ATOM     14  N   ALA A   2       7.071  -1.010  -1.526  1.00  0.00    -0.343 N 
ATOM     15  C   SER A   1       8.033  -0.596  -0.543  1.00  0.00     0.239 C 
ATOM     16  O   SER A   1       7.974   0.564  -0.051  1.00  0.00    -0.273 OA
ATOM     17  H   UNL     1       7.175  -1.951  -1.970  1.00  0.00     0.164 HD
BRANCH  15  18
ATOM     18  CA  SER A   1       9.132  -1.530  -0.089  1.00  0.00     0.167 C 
BRANCH  18  19
ATOM     19  N   SER A   1       8.576  -2.739   0.527  1.00  0.00    -0.318 NA
ATOM     20  H   UNL     1       7.993  -2.458   1.349  1.00  0.00     0.119 HD
ATOM     21  H   UNL     1       7.947  -3.229  -0.150  1.00  0.00     0.119 HD
ENDBRANCH  18  19
BRANCH  18  22
ATOM     22  CB  SER A   1      10.057  -1.896  -1.259  1.00  0.00     0.184 C 
BRANCH  22  23
ATOM     23  OG  SER A   1      11.117  -2.703  -0.812  1.00  0.00    -0.394 OA
ATOM     24  H   UNL     1      11.745  -2.101  -0.334  1.00  0.00     0.210 HD
ENDBRANCH  22  23
ENDBRANCH  18  22
ENDBRANCH  15  18
ENDBRANCH  12  14
ENDBRANCH  10  12
ENDBRANCH   6  10
ENDBRANCH   1   5
BRANCH   3  25
ATOM     25  CA  LEU A   4       0.067  -1.001   1.111  1.00  0.00     0.171 C 
BRANCH  25  26
ATOM     26  C   LEU A   4      -1.250  -0.355   0.755  1.00  0.00     0.243 C 
ATOM     27  N   ARG A   5      -2.349  -1.171   0.319  1.00  0.00    -0.343 N 
ATOM     28  O   LEU A   4      -1.377   0.900   0.810  1.00  0.00    -0.273 OA
ATOM     29  H   UNL     1      -2.197  -2.201   0.223  1.00  0.00     0.164 HD
BRANCH  27  30
ATOM     30  CA  ARG A   5      -3.647  -0.596  -0.051  1.00  0.00     0.171 C 
BRANCH  30  31
ATOM     31  C   ARG A   5      -4.340  -0.083   1.186  1.00  0.00     0.243 C 
ATOM     32  N   ASN A   6      -4.851   1.256   1.225  1.00  0.00    -0.341 N 
ATOM     33  O   ARG A   5      -4.475  -0.841   2.184  1.00  0.00    -0.273 OA
ATOM     34  H   UNL     1      -4.724   1.858   0.378  1.00  0.00     0.164 HD
BRANCH  32  35
ATOM     35  CA  ASN A   6      -5.494   1.813   2.422  1.00  0.00     0.201 C 
BRANCH  35  36
ATOM     36  C   ASN A   6      -6.801   1.122   2.714  1.00  0.00     0.326 C 
ATOM     37  O   ASN A   6      -7.469   0.586   1.787  1.00  0.00    -0.250 OA
BRANCH  36  38
ATOM     38  OXT ASN A   6      -7.290   1.111   4.018  1.00  0.00    -0.480 OA
ATOM     39  H   UNL     1      -8.174   0.664   4.236  1.00  0.00     0.296 HD
ENDBRANCH  36  38
ENDBRANCH  35  36
BRANCH  35  40
ATOM     40  CB  ASN A   6      -5.678   3.343   2.313  1.00  0.00     0.136 C 
BRANCH  40  41
ATOM     41  CG  ASN A   6      -6.427   3.794   1.083  1.00  0.00     0.220 C 
ATOM     42  ND2 ASN A   6      -5.906   4.847   0.271  1.00  0.00    -0.370 N 
ATOM     43  OD1 ASN A   6      -7.544   3.284   0.795  1.00  0.00    -0.275 OA
ATOM     44  H   UNL     1      -6.427   5.167  -0.574  1.00  0.00     0.159 HD
ATOM     45  H   UNL     1      -4.999   5.309   0.507  1.00  0.00     0.159 HD
ENDBRANCH  40  41
ENDBRANCH  35  40
ENDBRANCH  32  35
ENDBRANCH  30  31
BRANCH  30  46
ATOM     46  CB  ARG A   5      -4.513  -1.652  -0.771  1.00  0.00     0.037 C 
BRANCH  46  47
ATOM     47  CG  ARG A   5      -5.878  -1.128  -1.265  1.00  0.00     0.024 C 
BRANCH  47  48
ATOM     48  CD  ARG A   5      -5.776  -0.027  -2.332  1.00  0.00     0.116 C 
BRANCH  48  49
ATOM     49  NE  ARG A   5      -4.956  -0.454  -3.466  1.00  0.00    -0.357 N 
ATOM     50  CZ  ARG A   5      -5.419  -1.371  -4.470  1.00  0.00     0.185 C 
ATOM     51  NH2 ARG A   5      -4.538  -1.770  -5.522  1.00  0.00    -0.370 N 
ATOM     52  H   UNL     1      -4.000  -0.043  -3.566  1.00  0.00     0.163 HD
ATOM     53  H   UNL     1      -4.858  -2.425  -6.271  1.00  0.00     0.159 HD
ATOM     54  H   UNL     1      -3.552  -1.426  -5.546  1.00  0.00     0.159 HD
BRANCH  50  55
ATOM     55  NH1 ARG A   5      -6.633  -1.822  -4.433  1.00  0.00    -0.270 NA
ATOM     56  H   UNL     1      -6.999  -2.483  -5.155  1.00  0.00     0.191 HD
ENDBRANCH  50  55
ENDBRANCH  48  49
ENDBRANCH  47  48
ENDBRANCH  46  47
ENDBRANCH  30  46
ENDBRANCH  27  30
ENDBRANCH  25  26
BRANCH  25  57
ATOM     57  CB  LEU A   4      -0.026  -1.926   2.352  1.00  0.00     0.038 C 
BRANCH  57  58
ATOM     58  CG  LEU A   4      -0.044  -1.256   3.754  1.00  0.00    -0.015 C 
ATOM     59  CD1 LEU A   4      -0.045  -2.342   4.839  1.00  0.00     0.007 C 
ATOM     60  CD2 LEU A   4      -1.248  -0.328   3.958  1.00  0.00     0.007 C 
ENDBRANCH  57  58
ENDBRANCH  25  57
ENDBRANCH   3  25
TORSDOF 24
