REMARK SMILES CC(C)C[C@H](NC(=O)[C@H](CCCNC(=N)N)NC(=O)[C@H](Cc1ccccc1)NC(=O)[C@@H](N)CO)C(=O)N[C@@H](C)C(=O)N[C@@H](CC(N)=O)C(=O)O
REMARK SMILES IDX 7 1 8 2 6 3 9 5 17 6 18 7 19 8 20 10 28 11 29 12 30 13 31 15
REMARK SMILES IDX 32 16 33 19 34 20 21 22 22 23 23 24 27 25 24 26 26 27 25 28
REMARK SMILES IDX 10 29 11 30 12 31 13 32 14 33 16 34 15 38 5 40 35 41 37 42
REMARK SMILES IDX 36 43 38 45 39 46 40 47 42 48 41 49 43 51 48 52 49 53 50 54
REMARK SMILES IDX 44 56 45 57 46 58 47 59 4 62 2 63 1 64 3 65
REMARK H PARENT 6 4 17 9 28 14 32 17 32 18 34 21 13 35 16 36 16 37 15 39 37 44
REMARK H PARENT 42 50 50 55 46 60 46 61
ROOT
ATOM      1  C   ARG A   3      -0.201   1.829   1.247  1.00  0.00     0.243 C 
ATOM      2  O   ARG A   3       0.367   2.940   1.430  1.00  0.00    -0.273 OA
ATOM      3  N   LEU A   4       0.578   0.673   0.895  1.00  0.00    -0.343 N 
ATOM      4  H   UNL     1       0.082  -0.229   0.712  1.00  0.00     0.164 HD
ENDROOT
BRANCH   1   5
ATOM      5  CA  ARG A   3      -1.685   1.732   1.476  1.00  0.00     0.171 C 
BRANCH   5   6
ATOM      6  N   ARG A   3      -2.293   0.774   0.548  1.00  0.00    -0.343 N 
ATOM      7  C   PHE A   2      -2.945   1.177  -0.661  1.00  0.00     0.243 C 
ATOM      8  O   PHE A   2      -2.646   2.273  -1.207  1.00  0.00    -0.273 OA
ATOM      9  H   UNL     1      -2.335  -0.236   0.819  1.00  0.00     0.164 HD
BRANCH   7  10
ATOM     10  CA  PHE A   2      -3.969   0.270  -1.285  1.00  0.00     0.175 C 
BRANCH  10  11
ATOM     11  N   PHE A   2      -5.060   1.067  -1.858  1.00  0.00    -0.343 N 
ATOM     12  C   SER A   1      -6.440   0.852  -1.521  1.00  0.00     0.239 C 
ATOM     13  O   SER A   1      -6.750   0.127  -0.534  1.00  0.00    -0.273 OA
ATOM     14  H   UNL     1      -4.832   1.751  -2.619  1.00  0.00     0.164 HD
BRANCH  12  15
ATOM     15  CA  SER A   1      -7.526   1.526  -2.328  1.00  0.00     0.167 C 
BRANCH  15  16
ATOM     16  N   SER A   1      -8.577   0.573  -2.696  1.00  0.00    -0.318 NA
ATOM     17  H   UNL     1      -8.996   0.158  -1.830  1.00  0.00     0.119 HD
ATOM     18  H   UNL     1      -8.148  -0.210  -3.243  1.00  0.00     0.119 HD
ENDBRANCH  15  16
BRANCH  15  19
ATOM     19  CB  SER A   1      -8.130   2.706  -1.553  1.00  0.00     0.184 C 
BRANCH  19  20
ATOM     20  OG  SER A   1      -7.159   3.682  -1.291  1.00  0.00    -0.394 OA
ATOM     21  H   UNL     1      -7.001   4.160  -2.148  1.00  0.00     0.210 HD
ENDBRANCH  19  20
ENDBRANCH  15  19
ENDBRANCH  12  15
ENDBRANCH  10  11
BRANCH  10  22
ATOM     22  CB  PHE A   2      -3.329  -0.616  -2.365  1.00  0.00     0.070 C 
BRANCH  22  23
ATOM     23  CG  PHE A   2      -4.315  -1.643  -2.865  1.00  0.00    -0.045 A 
ATOM     24  CD1 PHE A   2      -5.121  -1.371  -3.983  1.00  0.00     0.004 A 
ATOM     25  CD2 PHE A   2      -4.496  -2.851  -2.166  1.00  0.00     0.004 A 
ATOM     26  CE1 PHE A   2      -6.092  -2.291  -4.396  1.00  0.00     0.000 A 
ATOM     27  CE2 PHE A   2      -5.468  -3.769  -2.584  1.00  0.00     0.000 A 
ATOM     28  CZ  PHE A   2      -6.266  -3.489  -3.698  1.00  0.00     0.000 A 
ENDBRANCH  22  23
ENDBRANCH  10  22
ENDBRANCH   7  10
ENDBRANCH   5   6
BRANCH   5  29
ATOM     29  CB  ARG A   3      -1.972   1.325   2.930  1.00  0.00     0.037 C 
BRANCH  29  30
ATOM     30  CG  ARG A   3      -3.474   1.412   3.261  1.00  0.00     0.024 C 
BRANCH  30  31
ATOM     31  CD  ARG A   3      -3.797   0.847   4.649  1.00  0.00     0.116 C 
BRANCH  31  32
ATOM     32  NE  ARG A   3      -3.138   1.627   5.699  1.00  0.00    -0.357 N 
ATOM     33  CZ  ARG A   3      -1.915   1.222   6.332  1.00  0.00     0.185 C 
ATOM     34  NH2 ARG A   3      -1.266   2.106   7.247  1.00  0.00    -0.370 N 
ATOM     35  H   UNL     1      -3.530   2.568   5.928  1.00  0.00     0.163 HD
ATOM     36  H   UNL     1      -1.636   3.070   7.406  1.00  0.00     0.159 HD
ATOM     37  H   UNL     1      -0.392   1.820   7.744  1.00  0.00     0.159 HD
BRANCH  33  38
ATOM     38  NH1 ARG A   3      -1.388   0.071   6.060  1.00  0.00    -0.270 NA
ATOM     39  H   UNL     1      -0.491  -0.236   6.498  1.00  0.00     0.191 HD
ENDBRANCH  33  38
ENDBRANCH  31  32
ENDBRANCH  30  31
ENDBRANCH  29  30
ENDBRANCH   5  29
ENDBRANCH   1   5
BRANCH   3  40
ATOM     40  CA  LEU A   4       2.047   0.712   0.857  1.00  0.00     0.171 C 
BRANCH  40  41
ATOM     41  C   LEU A   4       2.613  -0.229  -0.174  1.00  0.00     0.243 C 
ATOM     42  N   ALA A   5       3.885   0.063  -0.768  1.00  0.00    -0.343 N 
ATOM     43  O   LEU A   4       1.988  -1.278  -0.497  1.00  0.00    -0.273 OA
ATOM     44  H   UNL     1       4.410   0.899  -0.421  1.00  0.00     0.164 HD
BRANCH  42  45
ATOM     45  CA  ALA A   5       4.445  -0.721  -1.869  1.00  0.00     0.168 C 
ATOM     46  CB  ALA A   5       3.620  -0.513  -3.146  1.00  0.00     0.041 C 
BRANCH  45  47
ATOM     47  C   ALA A   5       5.885  -0.335  -2.093  1.00  0.00     0.243 C 
ATOM     48  N   ASN A   6       6.929  -1.055  -1.410  1.00  0.00    -0.341 N 
ATOM     49  O   ALA A   5       6.150   0.692  -2.776  1.00  0.00    -0.273 OA
ATOM     50  H   UNL     1       6.617  -1.661  -0.612  1.00  0.00     0.164 HD
BRANCH  48  51
ATOM     51  CA  ASN A   6       8.290  -1.317  -1.916  1.00  0.00     0.201 C 
BRANCH  51  52
ATOM     52  C   ASN A   6       9.226  -1.411  -0.742  1.00  0.00     0.326 C 
ATOM     53  O   ASN A   6       9.917  -2.450  -0.566  1.00  0.00    -0.250 OA
BRANCH  52  54
ATOM     54  OXT ASN A   6       9.343  -0.338   0.144  1.00  0.00    -0.480 OA
ATOM     55  H   UNL     1       9.969  -0.391   0.937  1.00  0.00     0.296 HD
ENDBRANCH  52  54
ENDBRANCH  51  52
BRANCH  51  56
ATOM     56  CB  ASN A   6       8.796  -0.265  -2.931  1.00  0.00     0.136 C 
BRANCH  56  57
ATOM     57  CG  ASN A   6      10.192  -0.573  -3.404  1.00  0.00     0.220 C 
ATOM     58  ND2 ASN A   6      11.323   0.055  -2.798  1.00  0.00    -0.370 N 
ATOM     59  OD1 ASN A   6      10.365  -1.412  -4.329  1.00  0.00    -0.275 OA
ATOM     60  H   UNL     1      11.199   0.730  -2.011  1.00  0.00     0.159 HD
ATOM     61  H   UNL     1      12.290  -0.167  -3.127  1.00  0.00     0.159 HD
ENDBRANCH  56  57
ENDBRANCH  51  56
ENDBRANCH  48  51
ENDBRANCH  45  47
ENDBRANCH  42  45
ENDBRANCH  40  41
BRANCH  40  62
ATOM     62  CB  LEU A   4       2.665   0.540   2.271  1.00  0.00     0.038 C 
BRANCH  62  63
ATOM     63  CG  LEU A   4       2.668  -0.871   2.932  1.00  0.00    -0.015 C 
ATOM     64  CD1 LEU A   4       3.759  -1.803   2.380  1.00  0.00     0.007 C 
ATOM     65  CD2 LEU A   4       1.296  -1.557   2.937  1.00  0.00     0.007 C 
ENDBRANCH  62  63
ENDBRANCH  40  62
ENDBRANCH   3  40
TORSDOF 26
