REMARK SMILES CC(C)[C@H](NC(=O)[C@H](C)NC(=O)[C@H](Cc1ccccc1)NC(=O)[C@@H](N)CO)C(=O)N[C@@H](CCCNC(=N)N)C(=O)N[C@@H](CC(N)=O)C(=O)O
REMARK SMILES IDX 6 1 7 2 5 3 8 5 9 6 10 7 11 8 12 9 13 11 21 12 22 13 23 14
REMARK SMILES IDX 24 16 25 17 26 20 27 21 14 23 15 24 16 25 20 26 17 27 19 28
REMARK SMILES IDX 18 29 4 30 28 31 30 32 29 33 31 35 39 36 41 37 40 38 42 40
REMARK SMILES IDX 47 41 48 42 49 43 43 45 44 46 45 47 46 48 32 51 33 52 34 53
REMARK SMILES IDX 35 54 36 55 38 56 37 60 2 62 1 63 3 64
REMARK H PARENT 5 4 10 10 21 15 25 18 25 19 27 22 30 34 41 39 49 44 45 49
REMARK H PARENT 45 50 35 57 38 58 38 59 37 61
ROOT
ATOM      1  C   ALA A   3      20.050  10.097  -6.462  1.00  0.00     0.242 C 
ATOM      2  O   ALA A   3      20.178   9.195  -5.588  1.00  0.00    -0.273 OA
ATOM      3  N   VAL A   4      20.568   9.918  -7.771  1.00  0.00    -0.342 N 
ATOM      4  H   UNL     1      20.404  10.657  -8.493  1.00  0.00     0.164 HD
ENDROOT
BRANCH   1   5
ATOM      5  CA  ALA A   3      19.343  11.371  -6.147  1.00  0.00     0.168 C 
ATOM      6  CB  ALA A   3      20.180  12.245  -5.222  1.00  0.00     0.041 C 
BRANCH   5   7
ATOM      7  N   ALA A   3      18.096  11.057  -5.497  1.00  0.00    -0.343 N 
ATOM      8  C   PHE A   2      16.889  11.751  -5.773  1.00  0.00     0.243 C 
ATOM      9  O   PHE A   2      16.901  12.792  -6.487  1.00  0.00    -0.273 OA
ATOM     10  H   UNL     1      18.189  10.553  -4.587  1.00  0.00     0.164 HD
BRANCH   8  11
ATOM     11  CA  PHE A   2      15.654  11.315  -5.060  1.00  0.00     0.175 C 
BRANCH  11  12
ATOM     12  N   PHE A   2      14.456  11.740  -5.770  1.00  0.00    -0.343 N 
ATOM     13  C   SER A   1      13.914  13.050  -5.637  1.00  0.00     0.239 C 
ATOM     14  O   SER A   1      14.442  13.869  -4.836  1.00  0.00    -0.273 OA
ATOM     15  H   UNL     1      13.874  11.000  -6.218  1.00  0.00     0.164 HD
BRANCH  13  16
ATOM     16  CA  SER A   1      12.661  13.411  -6.390  1.00  0.00     0.167 C 
BRANCH  16  17
ATOM     17  N   SER A   1      12.475  14.863  -6.375  1.00  0.00    -0.318 NA
ATOM     18  H   UNL     1      13.174  15.314  -7.010  1.00  0.00     0.119 HD
ATOM     19  H   UNL     1      11.521  15.090  -6.739  1.00  0.00     0.119 HD
ENDBRANCH  16  17
BRANCH  16  20
ATOM     20  CB  SER A   1      12.688  12.878  -7.844  1.00  0.00     0.184 C 
BRANCH  20  21
ATOM     21  OG  SER A   1      11.436  13.047  -8.450  1.00  0.00    -0.394 OA
ATOM     22  H   UNL     1      11.447  13.936  -8.892  1.00  0.00     0.210 HD
ENDBRANCH  20  21
ENDBRANCH  16  20
ENDBRANCH  13  16
ENDBRANCH  11  12
BRANCH  11  23
ATOM     23  CB  PHE A   2      15.619   9.776  -4.890  1.00  0.00     0.070 C 
BRANCH  23  24
ATOM     24  CG  PHE A   2      14.449   9.289  -4.089  1.00  0.00    -0.045 A 
ATOM     25  CD1 PHE A   2      13.906  10.047  -3.033  1.00  0.00     0.004 A 
ATOM     26  CD2 PHE A   2      13.972   7.990  -4.310  1.00  0.00     0.004 A 
ATOM     27  CE1 PHE A   2      12.870   9.536  -2.261  1.00  0.00     0.000 A 
ATOM     28  CE2 PHE A   2      12.942   7.478  -3.522  1.00  0.00     0.000 A 
ATOM     29  CZ  PHE A   2      12.387   8.253  -2.504  1.00  0.00     0.000 A 
ENDBRANCH  23  24
ENDBRANCH  11  23
ENDBRANCH   8  11
ENDBRANCH   5   7
ENDBRANCH   1   5
BRANCH   3  30
ATOM     30  CA  VAL A   4      21.337   8.747  -8.149  1.00  0.00     0.174 C 
BRANCH  30  31
ATOM     31  C   VAL A   4      22.708   9.206  -8.522  1.00  0.00     0.243 C 
ATOM     32  N   ARG A   5      23.817   8.707  -7.789  1.00  0.00    -0.343 N 
ATOM     33  O   VAL A   4      22.874  10.031  -9.463  1.00  0.00    -0.273 OA
ATOM     34  H   UNL     1      23.662   7.981  -7.052  1.00  0.00     0.164 HD
BRANCH  32  35
ATOM     35  CA  ARG A   5      25.180   9.117  -8.072  1.00  0.00     0.171 C 
BRANCH  35  36
ATOM     36  C   ARG A   5      25.900   7.967  -8.686  1.00  0.00     0.243 C 
ATOM     37  N   ASN A   6      25.914   7.865 -10.103  1.00  0.00    -0.341 N 
ATOM     38  O   ARG A   5      26.449   7.087  -7.970  1.00  0.00    -0.273 OA
ATOM     39  H   UNL     1      25.491   8.649 -10.651  1.00  0.00     0.164 HD
BRANCH  37  40
ATOM     40  CA  ASN A   6      26.543   6.751 -10.804  1.00  0.00     0.201 C 
BRANCH  40  41
ATOM     41  C   ASN A   6      27.993   6.642 -10.416  1.00  0.00     0.326 C 
ATOM     42  O   ASN A   6      28.794   7.579 -10.677  1.00  0.00    -0.250 OA
BRANCH  41  43
ATOM     43  OXT ASN A   6      28.452   5.498  -9.770  1.00  0.00    -0.480 OA
ATOM     44  H   UNL     1      29.425   5.408  -9.502  1.00  0.00     0.296 HD
ENDBRANCH  41  43
ENDBRANCH  40  41
BRANCH  40  45
ATOM     45  CB  ASN A   6      26.425   6.947 -12.324  1.00  0.00     0.136 C 
BRANCH  45  46
ATOM     46  CG  ASN A   6      25.010   7.181 -12.773  1.00  0.00     0.220 C 
ATOM     47  ND2 ASN A   6      24.754   8.091 -13.834  1.00  0.00    -0.370 N 
ATOM     48  OD1 ASN A   6      24.053   6.559 -12.242  1.00  0.00    -0.275 OA
ATOM     49  H   UNL     1      23.775   8.258 -14.157  1.00  0.00     0.159 HD
ATOM     50  H   UNL     1      25.533   8.599 -14.307  1.00  0.00     0.159 HD
ENDBRANCH  45  46
ENDBRANCH  40  45
ENDBRANCH  37  40
ENDBRANCH  35  36
BRANCH  35  51
ATOM     51  CB  ARG A   5      25.856   9.600  -6.794  1.00  0.00     0.037 C 
BRANCH  51  52
ATOM     52  CG  ARG A   5      25.165  10.859  -6.272  1.00  0.00     0.024 C 
BRANCH  52  53
ATOM     53  CD  ARG A   5      25.840  11.390  -5.016  1.00  0.00     0.116 C 
BRANCH  53  54
ATOM     54  NE  ARG A   5      25.377  10.684  -3.823  1.00  0.00    -0.357 N 
ATOM     55  CZ  ARG A   5      25.468  11.279  -2.527  1.00  0.00     0.185 C 
ATOM     56  NH2 ARG A   5      26.106  12.541  -2.350  1.00  0.00    -0.370 N 
ATOM     57  H   UNL     1      24.903   9.758  -3.921  1.00  0.00     0.163 HD
ATOM     58  H   UNL     1      26.084  13.006  -1.415  1.00  0.00     0.159 HD
ATOM     59  H   UNL     1      26.692  12.983  -3.091  1.00  0.00     0.159 HD
BRANCH  55  60
ATOM     60  NH1 ARG A   5      24.959  10.679  -1.500  1.00  0.00    -0.270 NA
ATOM     61  H   UNL     1      24.478   9.755  -1.583  1.00  0.00     0.191 HD
ENDBRANCH  55  60
ENDBRANCH  53  54
ENDBRANCH  52  53
ENDBRANCH  51  52
ENDBRANCH  35  51
ENDBRANCH  32  35
ENDBRANCH  30  31
BRANCH  30  62
ATOM     62  CB  VAL A   4      20.643   7.999  -9.305  1.00  0.00     0.015 C 
ATOM     63  CG1 VAL A   4      21.451   6.772  -9.752  1.00  0.00     0.010 C 
ATOM     64  CG2 VAL A   4      19.224   7.561  -8.907  1.00  0.00     0.010 C 
ENDBRANCH  30  62
ENDBRANCH   3  30
TORSDOF 25
