REMARK SMILES CC(C)C[C@H](NC(=O)[C@H](Cc1ccccc1)NC(=O)[C@@H](N)CO)C(=O)NCC(=O)N[C@@H](CCCNC(=N)N)C(=O)N[C@@H](CO)C(=O)O
REMARK SMILES IDX 24 1 25 2 26 3 5 5 6 6 7 7 8 8 9 10 17 11 18 12 19 13 20 15
REMARK SMILES IDX 21 16 22 19 23 20 10 22 11 23 12 24 16 25 13 26 15 27 14 28
REMARK SMILES IDX 4 29 2 30 1 31 3 32 27 33 28 34 30 35 29 36 31 38 39 39
REMARK SMILES IDX 41 40 40 41 42 43 45 44 46 45 47 46 43 48 44 49 32 51 33 52
REMARK SMILES IDX 34 53 35 54 36 55 38 56 37 60
REMARK H PARENT 26 4 6 9 17 14 21 17 21 18 23 21 30 37 41 42 47 47 44 50 35 57
REMARK H PARENT 38 58 38 59 37 61
ROOT
ATOM      1  C   LEU A   3      20.060  10.079  -6.484  1.00  0.00     0.243 C 
ATOM      2  O   LEU A   3      20.180   9.153  -5.634  1.00  0.00    -0.273 OA
ATOM      3  N   GLY A   4      20.561   9.914  -7.799  1.00  0.00    -0.345 N 
ATOM      4  H   UNL     1      20.396  10.662  -8.511  1.00  0.00     0.164 HD
ENDROOT
BRANCH   1   5
ATOM      5  CA  LEU A   3      19.344  11.349  -6.148  1.00  0.00     0.171 C 
BRANCH   5   6
ATOM      6  N   LEU A   3      18.085  11.016  -5.540  1.00  0.00    -0.343 N 
ATOM      7  C   PHE A   2      16.889  11.744  -5.775  1.00  0.00     0.243 C 
ATOM      8  O   PHE A   2      16.908  12.795  -6.473  1.00  0.00    -0.273 OA
ATOM      9  H   UNL     1      18.158  10.378  -4.724  1.00  0.00     0.164 HD
BRANCH   7  10
ATOM     10  CA  PHE A   2      15.653  11.313  -5.056  1.00  0.00     0.175 C 
BRANCH  10  11
ATOM     11  N   PHE A   2      14.456  11.740  -5.768  1.00  0.00    -0.343 N 
ATOM     12  C   SER A   1      13.916  13.050  -5.637  1.00  0.00     0.239 C 
ATOM     13  O   SER A   1      14.444  13.870  -4.836  1.00  0.00    -0.273 OA
ATOM     14  H   UNL     1      13.871  11.000  -6.214  1.00  0.00     0.164 HD
BRANCH  12  15
ATOM     15  CA  SER A   1      12.662  13.410  -6.389  1.00  0.00     0.167 C 
BRANCH  15  16
ATOM     16  N   SER A   1      12.472  14.862  -6.376  1.00  0.00    -0.318 NA
ATOM     17  H   UNL     1      13.202  15.317  -6.972  1.00  0.00     0.119 HD
ATOM     18  H   UNL     1      11.539  15.086  -6.793  1.00  0.00     0.119 HD
ENDBRANCH  15  16
BRANCH  15  19
ATOM     19  CB  SER A   1      12.687  12.878  -7.844  1.00  0.00     0.184 C 
BRANCH  19  20
ATOM     20  OG  SER A   1      11.437  13.048  -8.451  1.00  0.00    -0.394 OA
ATOM     21  H   UNL     1      10.831  12.368  -8.053  1.00  0.00     0.210 HD
ENDBRANCH  19  20
ENDBRANCH  15  19
ENDBRANCH  12  15
ENDBRANCH  10  11
BRANCH  10  22
ATOM     22  CB  PHE A   2      15.610   9.773  -4.879  1.00  0.00     0.070 C 
BRANCH  22  23
ATOM     23  CG  PHE A   2      14.435   9.292  -4.092  1.00  0.00    -0.045 A 
ATOM     24  CD1 PHE A   2      13.897  10.048  -3.033  1.00  0.00     0.004 A 
ATOM     25  CD2 PHE A   2      13.964   7.991  -4.310  1.00  0.00     0.004 A 
ATOM     26  CE1 PHE A   2      12.865   9.535  -2.258  1.00  0.00     0.000 A 
ATOM     27  CE2 PHE A   2      12.937   7.477  -3.520  1.00  0.00     0.000 A 
ATOM     28  CZ  PHE A   2      12.384   8.252  -2.500  1.00  0.00     0.000 A 
ENDBRANCH  22  23
ENDBRANCH  10  22
ENDBRANCH   7  10
ENDBRANCH   5   6
BRANCH   5  29
ATOM     29  CB  LEU A   3      20.165  12.249  -5.216  1.00  0.00     0.038 C 
BRANCH  29  30
ATOM     30  CG  LEU A   3      20.417  11.677  -3.792  1.00  0.00    -0.015 C 
ATOM     31  CD1 LEU A   3      21.819  12.065  -3.316  1.00  0.00     0.007 C 
ATOM     32  CD2 LEU A   3      19.368  12.167  -2.782  1.00  0.00     0.007 C 
ENDBRANCH  29  30
ENDBRANCH   5  29
ENDBRANCH   1   5
BRANCH   3  33
ATOM     33  CA  GLY A   4      21.334   8.757  -8.203  1.00  0.00     0.216 C 
BRANCH  33  34
ATOM     34  C   GLY A   4      22.707   9.205  -8.540  1.00  0.00     0.240 C 
ATOM     35  N   ARG A   5      23.807   8.709  -7.790  1.00  0.00    -0.343 N 
ATOM     36  O   GLY A   4      22.884  10.032  -9.475  1.00  0.00    -0.273 OA
ATOM     37  H   UNL     1      23.641   7.993  -7.046  1.00  0.00     0.164 HD
BRANCH  35  38
ATOM     38  CA  ARG A   5      25.176   9.112  -8.073  1.00  0.00     0.171 C 
BRANCH  38  39
ATOM     39  C   ARG A   5      25.894   7.961  -8.690  1.00  0.00     0.243 C 
ATOM     40  N   SER A   6      25.882   7.841 -10.108  1.00  0.00    -0.339 N 
ATOM     41  O   ARG A   5      26.458   7.090  -7.974  1.00  0.00    -0.273 OA
ATOM     42  H   UNL     1      25.347   8.554 -10.657  1.00  0.00     0.164 HD
BRANCH  40  43
ATOM     43  CA  SER A   6      26.547   6.752 -10.816  1.00  0.00     0.218 C 
BRANCH  43  44
ATOM     44  C   SER A   6      27.996   6.652 -10.416  1.00  0.00     0.328 C 
ATOM     45  O   SER A   6      28.797   7.589 -10.678  1.00  0.00    -0.250 OA
BRANCH  44  46
ATOM     46  OXT SER A   6      28.453   5.516  -9.756  1.00  0.00    -0.480 OA
ATOM     47  H   UNL     1      29.424   5.432  -9.478  1.00  0.00     0.296 HD
ENDBRANCH  44  46
ENDBRANCH  43  44
BRANCH  43  48
ATOM     48  CB  SER A   6      26.412   6.950 -12.332  1.00  0.00     0.193 C 
BRANCH  48  49
ATOM     49  OG  SER A   6      26.956   8.181 -12.727  1.00  0.00    -0.394 OA
ATOM     50  H   UNL     1      26.831   8.235 -13.709  1.00  0.00     0.210 HD
ENDBRANCH  48  49
ENDBRANCH  43  48
ENDBRANCH  40  43
ENDBRANCH  38  39
BRANCH  38  51
ATOM     51  CB  ARG A   5      25.853   9.597  -6.794  1.00  0.00     0.037 C 
BRANCH  51  52
ATOM     52  CG  ARG A   5      25.162  10.856  -6.271  1.00  0.00     0.024 C 
BRANCH  52  53
ATOM     53  CD  ARG A   5      25.839  11.388  -5.015  1.00  0.00     0.116 C 
BRANCH  53  54
ATOM     54  NE  ARG A   5      25.377  10.685  -3.821  1.00  0.00    -0.357 N 
ATOM     55  CZ  ARG A   5      25.469  11.281  -2.527  1.00  0.00     0.185 C 
ATOM     56  NH2 ARG A   5      26.107  12.546  -2.353  1.00  0.00    -0.370 N 
ATOM     57  H   UNL     1      24.893   9.763  -3.912  1.00  0.00     0.163 HD
ATOM     58  H   UNL     1      26.696  12.982  -3.095  1.00  0.00     0.159 HD
ATOM     59  H   UNL     1      26.081  13.024  -1.425  1.00  0.00     0.159 HD
BRANCH  55  60
ATOM     60  NH1 ARG A   5      24.955  10.672  -1.507  1.00  0.00    -0.270 NA
ATOM     61  H   UNL     1      24.996  11.077  -0.545  1.00  0.00     0.191 HD
ENDBRANCH  55  60
ENDBRANCH  53  54
ENDBRANCH  52  53
ENDBRANCH  51  52
ENDBRANCH  38  51
ENDBRANCH  35  38
ENDBRANCH  33  34
ENDBRANCH   3  33
TORSDOF 26
