REMARK SMILES CC(C)C[C@H](NC(=O)[C@H](Cc1ccccc1)NC(=O)[C@@H](N)CO)C(=O)N[C@@H](CCCCN)C(=O)N[C@@H](CCCNC(=N)N)C(=O)N[C@@H](C)C(=O)O
REMARK SMILES IDX 24 1 25 2 26 3 5 5 6 6 7 7 8 8 9 10 17 11 18 12 19 13 20 15
REMARK SMILES IDX 21 16 22 19 23 20 10 22 11 23 12 24 16 25 13 26 15 27 14 28
REMARK SMILES IDX 4 29 2 30 1 31 3 32 27 33 33 34 35 35 34 36 36 38 44 39
REMARK SMILES IDX 46 40 45 41 47 43 48 44 49 45 50 46 51 47 37 49 38 50 39 51
REMARK SMILES IDX 40 52 41 53 43 54 42 58 28 60 29 61 30 62 31 63 32 64
REMARK H PARENT 26 4 6 9 17 14 21 17 21 18 23 21 35 37 46 42 51 48 40 55 43 56
REMARK H PARENT 43 57 42 59 32 65 32 66
ROOT
ATOM      1  C   LEU A   3      -0.844  -0.522   0.291  1.00  0.00     0.243 C 
ATOM      2  O   LEU A   3      -1.058  -1.753   0.111  1.00  0.00    -0.273 OA
ATOM      3  N   LYS A   4       0.454   0.033   0.036  1.00  0.00    -0.343 N 
ATOM      4  H   UNL     1       0.619   1.022   0.328  1.00  0.00     0.164 HD
ENDROOT
BRANCH   1   5
ATOM      5  CA  LEU A   3      -1.941   0.376   0.814  1.00  0.00     0.171 C 
BRANCH   5   6
ATOM      6  N   LEU A   3      -3.252   0.020   0.256  1.00  0.00    -0.343 N 
ATOM      7  C   PHE A   2      -4.307   0.986   0.117  1.00  0.00     0.243 C 
ATOM      8  O   PHE A   2      -4.127   2.178   0.491  1.00  0.00    -0.273 OA
ATOM      9  H   UNL     1      -3.417  -0.942  -0.115  1.00  0.00     0.164 HD
BRANCH   7  10
ATOM     10  CA  PHE A   2      -5.623   0.582  -0.498  1.00  0.00     0.175 C 
BRANCH  10  11
ATOM     11  N   PHE A   2      -6.618   1.649  -0.322  1.00  0.00    -0.343 N 
ATOM     12  C   SER A   1      -7.460   1.745   0.836  1.00  0.00     0.239 C 
ATOM     13  O   SER A   1      -7.392   0.871   1.745  1.00  0.00    -0.273 OA
ATOM     14  H   UNL     1      -6.609   2.452  -0.996  1.00  0.00     0.164 HD
BRANCH  12  15
ATOM     15  CA  SER A   1      -8.379   2.928   0.994  1.00  0.00     0.167 C 
BRANCH  15  16
ATOM     16  N   SER A   1      -9.571   2.565   1.768  1.00  0.00    -0.318 NA
ATOM     17  H   UNL     1     -10.248   3.361   1.721  1.00  0.00     0.119 HD
ATOM     18  H   UNL     1      -9.317   2.434   2.776  1.00  0.00     0.119 HD
ENDBRANCH  15  16
BRANCH  15  19
ATOM     19  CB  SER A   1      -7.640   4.127   1.615  1.00  0.00     0.184 C 
BRANCH  19  20
ATOM     20  OG  SER A   1      -7.203   3.838   2.920  1.00  0.00    -0.394 OA
ATOM     21  H   UNL     1      -6.335   3.365   2.830  1.00  0.00     0.210 HD
ENDBRANCH  19  20
ENDBRANCH  15  19
ENDBRANCH  12  15
ENDBRANCH  10  11
BRANCH  10  22
ATOM     22  CB  PHE A   2      -5.439   0.274  -1.996  1.00  0.00     0.070 C 
BRANCH  22  23
ATOM     23  CG  PHE A   2      -6.736  -0.166  -2.625  1.00  0.00    -0.045 A 
ATOM     24  CD1 PHE A   2      -7.197  -1.483  -2.449  1.00  0.00     0.004 A 
ATOM     25  CD2 PHE A   2      -7.522   0.745  -3.353  1.00  0.00     0.004 A 
ATOM     26  CE1 PHE A   2      -8.420  -1.882  -2.996  1.00  0.00     0.000 A 
ATOM     27  CE2 PHE A   2      -8.742   0.340  -3.904  1.00  0.00     0.000 A 
ATOM     28  CZ  PHE A   2      -9.190  -0.973  -3.727  1.00  0.00     0.000 A 
ENDBRANCH  22  23
ENDBRANCH  10  22
ENDBRANCH   7  10
ENDBRANCH   5   6
BRANCH   5  29
ATOM     29  CB  LEU A   3      -1.973   0.439   2.360  1.00  0.00     0.038 C 
BRANCH  29  30
ATOM     30  CG  LEU A   3      -2.002  -0.919   3.106  1.00  0.00    -0.015 C 
ATOM     31  CD1 LEU A   3      -1.796  -0.689   4.610  1.00  0.00     0.007 C 
ATOM     32  CD2 LEU A   3      -3.312  -1.688   2.881  1.00  0.00     0.007 C 
ENDBRANCH  29  30
ENDBRANCH   5  29
ENDBRANCH   1   5
BRANCH   3  33
ATOM     33  CA  LYS A   4       1.529  -0.719  -0.624  1.00  0.00     0.171 C 
BRANCH  33  34
ATOM     34  C   LYS A   4       2.835   0.029  -0.482  1.00  0.00     0.243 C 
ATOM     35  N   ARG A   5       4.018  -0.644  -0.017  1.00  0.00    -0.343 N 
ATOM     36  O   LYS A   4       2.892   1.246  -0.811  1.00  0.00    -0.273 OA
ATOM     37  H   UNL     1       3.957  -1.662   0.208  1.00  0.00     0.164 HD
BRANCH  35  38
ATOM     38  CA  ARG A   5       5.289   0.067   0.155  1.00  0.00     0.171 C 
BRANCH  38  39
ATOM     39  C   ARG A   5       5.810   0.499  -1.194  1.00  0.00     0.243 C 
ATOM     40  N   ALA A   6       5.942   1.894  -1.501  1.00  0.00    -0.341 N 
ATOM     41  O   ARG A   5       6.111  -0.373  -2.054  1.00  0.00    -0.273 OA
ATOM     42  H   UNL     1       5.654   2.595  -0.781  1.00  0.00     0.164 HD
BRANCH  40  43
ATOM     43  CA  ALA A   6       6.498   2.364  -2.773  1.00  0.00     0.189 C 
ATOM     44  CB  ALA A   6       6.163   3.843  -2.993  1.00  0.00     0.043 C 
BRANCH  43  45
ATOM     45  C   ALA A   6       7.986   2.167  -2.790  1.00  0.00     0.325 C 
ATOM     46  O   ALA A   6       8.679   2.466  -1.782  1.00  0.00    -0.250 OA
BRANCH  45  47
ATOM     47  OXT ALA A   6       8.609   1.695  -3.944  1.00  0.00    -0.480 OA
ATOM     48  H   UNL     1       9.614   1.580  -3.975  1.00  0.00     0.296 HD
ENDBRANCH  45  47
ENDBRANCH  43  45
ENDBRANCH  40  43
ENDBRANCH  38  39
BRANCH  38  49
ATOM     49  CB  ARG A   5       6.316  -0.823   0.886  1.00  0.00     0.037 C 
BRANCH  49  50
ATOM     50  CG  ARG A   5       7.585  -0.039   1.269  1.00  0.00     0.024 C 
BRANCH  50  51
ATOM     51  CD  ARG A   5       8.629  -0.927   1.959  1.00  0.00     0.116 C 
BRANCH  51  52
ATOM     52  NE  ARG A   5       8.127  -1.454   3.228  1.00  0.00    -0.357 N 
ATOM     53  CZ  ARG A   5       8.020  -0.663   4.422  1.00  0.00     0.185 C 
ATOM     54  NH2 ARG A   5       7.569  -1.268   5.634  1.00  0.00    -0.370 N 
ATOM     55  H   UNL     1       7.900  -2.472   3.280  1.00  0.00     0.163 HD
ATOM     56  H   UNL     1       7.512  -0.723   6.520  1.00  0.00     0.159 HD
ATOM     57  H   UNL     1       7.306  -2.279   5.652  1.00  0.00     0.159 HD
BRANCH  53  58
ATOM     58  NH1 ARG A   5       8.347   0.589   4.407  1.00  0.00    -0.270 NA
ATOM     59  H   UNL     1       8.287   1.183   5.265  1.00  0.00     0.191 HD
ENDBRANCH  53  58
ENDBRANCH  51  52
ENDBRANCH  50  51
ENDBRANCH  49  50
ENDBRANCH  38  49
ENDBRANCH  35  38
ENDBRANCH  33  34
BRANCH  33  60
ATOM     60  CB  LYS A   4       1.188  -0.930  -2.117  1.00  0.00     0.035 C 
BRANCH  60  61
ATOM     61  CG  LYS A   4       2.151  -1.901  -2.838  1.00  0.00     0.004 C 
BRANCH  61  62
ATOM     62  CD  LYS A   4       1.566  -3.311  -3.031  1.00  0.00     0.015 C 
BRANCH  62  63
ATOM     63  CE  LYS A   4       1.409  -4.074  -1.713  1.00  0.00     0.077 C 
BRANCH  63  64
ATOM     64  NZ  LYS A   4       1.005  -5.454  -1.973  1.00  0.00    -0.330 NA
ATOM     65  H   UNL     1       1.820  -5.957  -2.401  1.00  0.00     0.118 HD
ATOM     66  H   UNL     1       0.834  -5.911  -1.048  1.00  0.00     0.118 HD
ENDBRANCH  63  64
ENDBRANCH  62  63
ENDBRANCH  61  62
ENDBRANCH  60  61
ENDBRANCH  33  60
ENDBRANCH   3  33
TORSDOF 29
