REMARK SMILES C[C@H](NC(=O)[C@H](CCC(=O)O)NC(=O)[C@H](Cc1ccccc1)NC(=O)[C@@H](N)CO)C(=O)N[C@@H](CCCNC(=N)N)C(=O)N[C@@H](CC(N)=O)C(=O)O
REMARK SMILES IDX 4 1 5 2 3 3 6 5 12 6 13 7 14 8 15 10 23 11 24 12 25 13 26 15
REMARK SMILES IDX 27 16 28 19 29 20 16 22 17 23 18 24 22 25 19 26 21 27 20 28
REMARK SMILES IDX 7 29 8 30 9 31 10 32 11 33 2 35 1 36 30 37 32 38 31 39 33 41
REMARK SMILES IDX 41 42 43 43 42 44 44 46 49 47 50 48 51 49 45 51 46 52 47 53
REMARK SMILES IDX 48 54 34 57 35 58 36 59 37 60 38 61 40 62 39 66
REMARK H PARENT 3 4 12 9 23 14 27 17 27 18 29 21 11 34 32 40 43 45 51 50 47 55
REMARK H PARENT 47 56 37 63 40 64 40 65 39 67
ROOT
ATOM      1  C   GLU A   3       1.344  -0.350   0.561  1.00  0.00     0.243 C 
ATOM      2  O   GLU A   3       1.406   0.174   1.710  1.00  0.00    -0.273 OA
ATOM      3  N   ALA A   4       0.225  -0.084  -0.296  1.00  0.00    -0.343 N 
ATOM      4  H   UNL     1       0.279  -0.407  -1.287  1.00  0.00     0.164 HD
ENDROOT
BRANCH   1   5
ATOM      5  CA  GLU A   3       2.473  -1.210   0.059  1.00  0.00     0.172 C 
BRANCH   5   6
ATOM      6  N   GLU A   3       3.382  -0.408  -0.769  1.00  0.00    -0.342 N 
ATOM      7  C   PHE A   2       4.253   0.618  -0.260  1.00  0.00     0.243 C 
ATOM      8  O   PHE A   2       4.191   0.940   0.955  1.00  0.00    -0.273 OA
ATOM      9  H   UNL     1       3.276  -0.509  -1.802  1.00  0.00     0.164 HD
BRANCH   7  10
ATOM     10  CA  PHE A   2       5.140   1.434  -1.179  1.00  0.00     0.175 C 
BRANCH  10  11
ATOM     11  N   PHE A   2       6.253   2.007  -0.410  1.00  0.00    -0.343 N 
ATOM     12  C   SER A   1       6.556   3.413  -0.393  1.00  0.00     0.239 C 
ATOM     13  O   SER A   1       5.747   4.242  -0.899  1.00  0.00    -0.273 OA
ATOM     14  H   UNL     1       6.860   1.355   0.126  1.00  0.00     0.164 HD
BRANCH  12  15
ATOM     15  CA  SER A   1       7.863   3.927   0.172  1.00  0.00     0.167 C 
BRANCH  15  16
ATOM     16  N   SER A   1       8.199   3.297   1.456  1.00  0.00    -0.318 NA
ATOM     17  H   UNL     1       7.355   3.308   2.078  1.00  0.00     0.119 HD
ATOM     18  H   UNL     1       8.491   2.302   1.309  1.00  0.00     0.119 HD
ENDBRANCH  15  16
BRANCH  15  19
ATOM     19  CB  SER A   1       8.995   3.730  -0.845  1.00  0.00     0.184 C 
BRANCH  19  20
ATOM     20  OG  SER A   1      10.194   4.240  -0.327  1.00  0.00    -0.394 OA
ATOM     21  H   UNL     1      10.872   4.118  -1.041  1.00  0.00     0.210 HD
ENDBRANCH  19  20
ENDBRANCH  15  19
ENDBRANCH  12  15
ENDBRANCH  10  11
BRANCH  10  22
ATOM     22  CB  PHE A   2       5.687   0.679  -2.419  1.00  0.00     0.070 C 
BRANCH  22  23
ATOM     23  CG  PHE A   2       6.378  -0.634  -2.116  1.00  0.00    -0.045 A 
ATOM     24  CD1 PHE A   2       5.760  -1.853  -2.444  1.00  0.00     0.004 A 
ATOM     25  CD2 PHE A   2       7.672  -0.657  -1.566  1.00  0.00     0.004 A 
ATOM     26  CE1 PHE A   2       6.396  -3.069  -2.173  1.00  0.00     0.000 A 
ATOM     27  CE2 PHE A   2       8.300  -1.874  -1.281  1.00  0.00     0.000 A 
ATOM     28  CZ  PHE A   2       7.659  -3.081  -1.578  1.00  0.00     0.000 A 
ENDBRANCH  22  23
ENDBRANCH  10  22
ENDBRANCH   7  10
ENDBRANCH   5   6
BRANCH   5  29
ATOM     29  CB  GLU A   3       3.199  -1.964   1.196  1.00  0.00     0.047 C 
BRANCH  29  30
ATOM     30  CG  GLU A   3       4.316  -2.865   0.664  1.00  0.00     0.125 C 
BRANCH  30  31
ATOM     31  CD  GLU A   3       4.875  -3.735   1.746  1.00  0.00     0.303 C 
ATOM     32  OE1 GLU A   3       6.111  -3.709   2.000  1.00  0.00    -0.252 OA
BRANCH  31  33
ATOM     33  OE2 GLU A   3       4.041  -4.606   2.441  1.00  0.00    -0.481 OA
ATOM     34  H   UNL     1       4.408  -5.208   3.170  1.00  0.00     0.296 HD
ENDBRANCH  31  33
ENDBRANCH  30  31
ENDBRANCH  29  30
ENDBRANCH   5  29
ENDBRANCH   1   5
BRANCH   3  35
ATOM     35  CA  ALA A   4      -0.914   0.752   0.100  1.00  0.00     0.168 C 
ATOM     36  CB  ALA A   4      -0.878   2.073  -0.671  1.00  0.00     0.041 C 
BRANCH  35  37
ATOM     37  C   ALA A   4      -2.214   0.031  -0.151  1.00  0.00     0.242 C 
ATOM     38  N   ARG A   5      -3.418   0.501   0.474  1.00  0.00    -0.343 N 
ATOM     39  O   ALA A   4      -2.249  -0.957  -0.941  1.00  0.00    -0.273 OA
ATOM     40  H   UNL     1      -3.352   1.354   1.074  1.00  0.00     0.164 HD
BRANCH  38  41
ATOM     41  CA  ARG A   5      -4.726  -0.146   0.299  1.00  0.00     0.171 C 
BRANCH  41  42
ATOM     42  C   ARG A   5      -5.721   0.810  -0.306  1.00  0.00     0.243 C 
ATOM     43  N   ASN A   6      -6.846   0.299  -1.036  1.00  0.00    -0.341 N 
ATOM     44  O   ARG A   5      -5.585   2.055  -0.138  1.00  0.00    -0.273 OA
ATOM     45  H   UNL     1      -6.938  -0.739  -1.141  1.00  0.00     0.164 HD
BRANCH  43  46
ATOM     46  CA  ASN A   6      -7.988   1.140  -1.404  1.00  0.00     0.201 C 
BRANCH  46  47
ATOM     47  C   ASN A   6      -8.981   1.179  -0.275  1.00  0.00     0.326 C 
ATOM     48  O   ASN A   6      -9.215   0.143   0.407  1.00  0.00    -0.250 OA
BRANCH  47  49
ATOM     49  OXT ASN A   6      -9.682   2.355  -0.013  1.00  0.00    -0.480 OA
ATOM     50  H   UNL     1     -10.368   2.393   0.732  1.00  0.00     0.296 HD
ENDBRANCH  47  49
ENDBRANCH  46  47
BRANCH  46  51
ATOM     51  CB  ASN A   6      -8.655   0.615  -2.685  1.00  0.00     0.136 C 
BRANCH  51  52
ATOM     52  CG  ASN A   6      -7.706   0.638  -3.849  1.00  0.00     0.220 C 
ATOM     53  ND2 ASN A   6      -7.223  -0.578  -4.422  1.00  0.00    -0.370 N 
ATOM     54  OD1 ASN A   6      -7.314   1.743  -4.309  1.00  0.00    -0.275 OA
ATOM     55  H   UNL     1      -7.534  -1.503  -4.052  1.00  0.00     0.159 HD
ATOM     56  H   UNL     1      -6.551  -0.552  -5.220  1.00  0.00     0.159 HD
ENDBRANCH  51  52
ENDBRANCH  46  51
ENDBRANCH  43  46
ENDBRANCH  41  42
BRANCH  41  57
ATOM     57  CB  ARG A   5      -5.241  -0.734   1.630  1.00  0.00     0.037 C 
BRANCH  57  58
ATOM     58  CG  ARG A   5      -5.487   0.319   2.727  1.00  0.00     0.024 C 
BRANCH  58  59
ATOM     59  CD  ARG A   5      -5.979  -0.312   4.035  1.00  0.00     0.116 C 
BRANCH  59  60
ATOM     60  NE  ARG A   5      -7.356  -0.791   3.900  1.00  0.00    -0.357 N 
ATOM     61  CZ  ARG A   5      -7.701  -2.172   3.710  1.00  0.00     0.185 C 
ATOM     62  NH2 ARG A   5      -9.078  -2.544   3.631  1.00  0.00    -0.370 N 
ATOM     63  H   UNL     1      -8.124  -0.077   3.898  1.00  0.00     0.163 HD
ATOM     64  H   UNL     1      -9.360  -3.543   3.501  1.00  0.00     0.159 HD
ATOM     65  H   UNL     1      -9.825  -1.819   3.723  1.00  0.00     0.159 HD
BRANCH  61  66
ATOM     66  NH1 ARG A   5      -6.780  -3.074   3.589  1.00  0.00    -0.270 NA
ATOM     67  H   UNL     1      -7.006  -4.083   3.441  1.00  0.00     0.191 HD
ENDBRANCH  61  66
ENDBRANCH  59  60
ENDBRANCH  58  59
ENDBRANCH  57  58
ENDBRANCH  41  57
ENDBRANCH  38  41
ENDBRANCH  35  37
ENDBRANCH   3  35
TORSDOF 28
