REMARK SMILES CC(C)C[C@H](NC(=O)[C@H](CCCNC(=N)N)NC(=O)[C@H](Cc1ccccc1)NC(=O)[C@@H](N)CO)C(=O)N[C@@H](CCCNC(=N)N)C(=O)N[C@@H](C)C(=O)O
REMARK SMILES IDX 7 1 8 2 6 3 9 5 17 6 18 7 19 8 20 10 28 11 29 12 30 13 31 15
REMARK SMILES IDX 32 16 33 19 34 20 21 22 22 23 23 24 27 25 24 26 26 27 25 28
REMARK SMILES IDX 10 29 11 30 12 31 13 32 14 33 16 34 15 38 5 40 35 41 37 42
REMARK SMILES IDX 36 43 38 45 46 46 48 47 47 48 49 50 50 51 51 52 52 53 53 54
REMARK SMILES IDX 39 56 40 57 41 58 42 59 43 60 45 61 44 65 4 67 2 68 1 69
REMARK SMILES IDX 3 70
REMARK H PARENT 6 4 17 9 28 14 32 17 32 18 34 21 13 35 16 36 16 37 15 39 37 44
REMARK H PARENT 48 49 53 55 42 62 45 63 45 64 44 66
ROOT
ATOM      1  C   ARG A   3      -0.626   1.889  -0.939  1.00  0.00     0.243 C 
ATOM      2  O   ARG A   3      -0.458   1.818  -2.187  1.00  0.00    -0.273 OA
ATOM      3  N   LEU A   4       0.506   2.076  -0.071  1.00  0.00    -0.343 N 
ATOM      4  H   UNL     1       0.365   2.057   0.963  1.00  0.00     0.164 HD
ENDROOT
BRANCH   1   5
ATOM      5  CA  ARG A   3      -2.022   1.711  -0.390  1.00  0.00     0.171 C 
BRANCH   5   6
ATOM      6  N   ARG A   3      -2.224   0.301  -0.054  1.00  0.00    -0.343 N 
ATOM      7  C   PHE A   2      -3.409  -0.422  -0.420  1.00  0.00     0.243 C 
ATOM      8  O   PHE A   2      -4.374   0.181  -0.969  1.00  0.00    -0.273 OA
ATOM      9  H   UNL     1      -1.494  -0.185   0.513  1.00  0.00     0.164 HD
BRANCH   7  10
ATOM     10  CA  PHE A   2      -3.493  -1.908  -0.187  1.00  0.00     0.175 C 
BRANCH  10  11
ATOM     11  N   PHE A   2      -4.818  -2.257   0.336  1.00  0.00    -0.343 N 
ATOM     12  C   SER A   1      -5.060  -2.523   1.728  1.00  0.00     0.239 C 
ATOM     13  O   SER A   1      -4.096  -2.591   2.542  1.00  0.00    -0.273 OA
ATOM     14  H   UNL     1      -5.645  -2.142  -0.291  1.00  0.00     0.164 HD
BRANCH  12  15
ATOM     15  CA  SER A   1      -6.466  -2.731   2.229  1.00  0.00     0.167 C 
BRANCH  15  16
ATOM     16  N   SER A   1      -7.287  -1.569   1.892  1.00  0.00    -0.318 NA
ATOM     17  H   UNL     1      -8.232  -1.692   2.330  1.00  0.00     0.119 HD
ATOM     18  H   UNL     1      -6.864  -0.726   2.345  1.00  0.00     0.119 HD
ENDBRANCH  15  16
BRANCH  15  19
ATOM     19  CB  SER A   1      -7.078  -4.004   1.619  1.00  0.00     0.184 C 
BRANCH  19  20
ATOM     20  OG  SER A   1      -6.297  -5.130   1.919  1.00  0.00    -0.394 OA
ATOM     21  H   UNL     1      -6.446  -5.339   2.877  1.00  0.00     0.210 HD
ENDBRANCH  19  20
ENDBRANCH  15  19
ENDBRANCH  12  15
ENDBRANCH  10  11
BRANCH  10  22
ATOM     22  CB  PHE A   2      -3.164  -2.710  -1.465  1.00  0.00     0.070 C 
BRANCH  22  23
ATOM     23  CG  PHE A   2      -4.086  -2.420  -2.626  1.00  0.00    -0.045 A 
ATOM     24  CD1 PHE A   2      -5.258  -3.174  -2.808  1.00  0.00     0.004 A 
ATOM     25  CD2 PHE A   2      -3.788  -1.389  -3.535  1.00  0.00     0.004 A 
ATOM     26  CE1 PHE A   2      -6.123  -2.889  -3.868  1.00  0.00     0.000 A 
ATOM     27  CE2 PHE A   2      -4.659  -1.104  -4.591  1.00  0.00     0.000 A 
ATOM     28  CZ  PHE A   2      -5.828  -1.851  -4.755  1.00  0.00     0.000 A 
ENDBRANCH  22  23
ENDBRANCH  10  22
ENDBRANCH   7  10
ENDBRANCH   5   6
BRANCH   5  29
ATOM     29  CB  ARG A   3      -2.292   2.609   0.841  1.00  0.00     0.037 C 
BRANCH  29  30
ATOM     30  CG  ARG A   3      -3.771   2.672   1.261  1.00  0.00     0.024 C 
BRANCH  30  31
ATOM     31  CD  ARG A   3      -4.646   3.479   0.289  1.00  0.00     0.116 C 
BRANCH  31  32
ATOM     32  NE  ARG A   3      -5.992   3.650   0.840  1.00  0.00    -0.357 N 
ATOM     33  CZ  ARG A   3      -6.299   4.599   1.872  1.00  0.00     0.185 C 
ATOM     34  NH2 ARG A   3      -7.634   4.680   2.386  1.00  0.00    -0.370 N 
ATOM     35  H   UNL     1      -6.771   3.090   0.423  1.00  0.00     0.163 HD
ATOM     36  H   UNL     1      -8.381   4.045   2.023  1.00  0.00     0.159 HD
ATOM     37  H   UNL     1      -7.879   5.376   3.127  1.00  0.00     0.159 HD
BRANCH  33  38
ATOM     38  NH1 ARG A   3      -5.377   5.387   2.331  1.00  0.00    -0.270 NA
ATOM     39  H   UNL     1      -5.573   6.085   3.081  1.00  0.00     0.191 HD
ENDBRANCH  33  38
ENDBRANCH  31  32
ENDBRANCH  30  31
ENDBRANCH  29  30
ENDBRANCH   5  29
ENDBRANCH   1   5
BRANCH   3  40
ATOM     40  CA  LEU A   4       1.887   2.147  -0.561  1.00  0.00     0.171 C 
BRANCH  40  41
ATOM     41  C   LEU A   4       2.598   0.866  -0.207  1.00  0.00     0.243 C 
ATOM     42  N   ARG A   5       3.451   0.222  -1.165  1.00  0.00    -0.343 N 
ATOM     43  O   LEU A   4       2.482   0.395   0.959  1.00  0.00    -0.273 OA
ATOM     44  H   UNL     1       3.534   0.643  -2.118  1.00  0.00     0.164 HD
BRANCH  42  45
ATOM     45  CA  ARG A   5       4.439  -0.782  -0.758  1.00  0.00     0.171 C 
BRANCH  45  46
ATOM     46  C   ARG A   5       5.699  -0.066  -0.341  1.00  0.00     0.243 C 
ATOM     47  N   ALA A   6       6.133  -0.097   1.028  1.00  0.00    -0.341 N 
ATOM     48  O   ARG A   5       6.350   0.596  -1.193  1.00  0.00    -0.273 OA
ATOM     49  H   UNL     1       5.559  -0.629   1.720  1.00  0.00     0.164 HD
BRANCH  47  50
ATOM     50  CA  ALA A   6       7.348   0.596   1.470  1.00  0.00     0.189 C 
ATOM     51  CB  ALA A   6       7.429   0.623   2.998  1.00  0.00     0.043 C 
BRANCH  50  52
ATOM     52  C   ALA A   6       8.565  -0.080   0.904  1.00  0.00     0.325 C 
ATOM     53  O   ALA A   6       8.748  -1.317   1.077  1.00  0.00    -0.250 OA
BRANCH  52  54
ATOM     54  OXT ALA A   6       9.490   0.663   0.178  1.00  0.00    -0.480 OA
ATOM     55  H   UNL     1      10.313   0.223  -0.215  1.00  0.00     0.296 HD
ENDBRANCH  52  54
ENDBRANCH  50  52
ENDBRANCH  47  50
ENDBRANCH  45  46
BRANCH  45  56
ATOM     56  CB  ARG A   5       4.696  -1.778  -1.914  1.00  0.00     0.037 C 
BRANCH  56  57
ATOM     57  CG  ARG A   5       5.170  -3.168  -1.447  1.00  0.00     0.024 C 
BRANCH  57  58
ATOM     58  CD  ARG A   5       6.552  -3.149  -0.789  1.00  0.00     0.116 C 
BRANCH  58  59
ATOM     59  NE  ARG A   5       7.028  -4.512  -0.555  1.00  0.00    -0.357 N 
ATOM     60  CZ  ARG A   5       6.547  -5.332   0.519  1.00  0.00     0.185 C 
ATOM     61  NH2 ARG A   5       7.063  -6.656   0.687  1.00  0.00    -0.370 N 
ATOM     62  H   UNL     1       7.798  -4.878  -1.157  1.00  0.00     0.163 HD
ATOM     63  H   UNL     1       7.771  -7.039   0.026  1.00  0.00     0.159 HD
ATOM     64  H   UNL     1       6.728  -7.264   1.468  1.00  0.00     0.159 HD
BRANCH  60  65
ATOM     65  NH1 ARG A   5       5.671  -4.866   1.355  1.00  0.00    -0.270 NA
ATOM     66  H   UNL     1       5.319  -5.440   2.152  1.00  0.00     0.191 HD
ENDBRANCH  60  65
ENDBRANCH  58  59
ENDBRANCH  57  58
ENDBRANCH  56  57
ENDBRANCH  45  56
ENDBRANCH  42  45
ENDBRANCH  40  41
BRANCH  40  67
ATOM     67  CB  LEU A   4       2.634   3.343   0.072  1.00  0.00     0.038 C 
BRANCH  67  68
ATOM     68  CG  LEU A   4       2.317   4.706  -0.590  1.00  0.00    -0.015 C 
ATOM     69  CD1 LEU A   4       0.872   5.157  -0.329  1.00  0.00     0.007 C 
ATOM     70  CD2 LEU A   4       3.292   5.775  -0.077  1.00  0.00     0.007 C 
ENDBRANCH  67  68
ENDBRANCH  40  67
ENDBRANCH   3  40
TORSDOF 29
