REMARK SMILES CC(C)C[C@H](NC(=O)[C@H](Cc1ccccc1)NC(=O)[C@@H](N)CO)C(=O)N[C@@H](CC(N)=O)C(=O)N[C@@H](CCCNC(=N)N)C(=O)N[C@@H](CO)C(=O)O
REMARK SMILES IDX 24 1 25 2 26 3 5 5 6 6 7 7 8 8 9 10 17 11 18 12 19 13 20 15
REMARK SMILES IDX 21 16 22 19 23 20 10 22 11 23 12 24 16 25 13 26 15 27 14 28
REMARK SMILES IDX 4 29 2 30 1 31 3 32 27 33 32 34 34 35 33 36 35 38 43 39
REMARK SMILES IDX 45 40 44 41 46 43 49 44 50 45 51 46 47 48 48 49 36 51 37 52
REMARK SMILES IDX 38 53 39 54 40 55 42 56 41 60 28 62 29 63 30 64 31 65
REMARK H PARENT 26 4 6 9 17 14 21 17 21 18 23 21 34 37 45 42 51 47 48 50 39 57
REMARK H PARENT 42 58 42 59 41 61 30 66 30 67
ROOT
ATOM      1  C   LEU A   3      20.055  10.079  -6.478  1.00  0.00     0.243 C 
ATOM      2  O   LEU A   3      20.169   9.157  -5.624  1.00  0.00    -0.273 OA
ATOM      3  N   ASN A   4      20.562   9.906  -7.790  1.00  0.00    -0.342 N 
ATOM      4  H   UNL     1      20.397  10.648  -8.509  1.00  0.00     0.164 HD
ENDROOT
BRANCH   1   5
ATOM      5  CA  LEU A   3      19.342  11.351  -6.148  1.00  0.00     0.171 C 
BRANCH   5   6
ATOM      6  N   LEU A   3      18.084  11.019  -5.539  1.00  0.00    -0.343 N 
ATOM      7  C   PHE A   2      16.888  11.744  -5.776  1.00  0.00     0.243 C 
ATOM      8  O   PHE A   2      16.906  12.795  -6.474  1.00  0.00    -0.273 OA
ATOM      9  H   UNL     1      18.156  10.384  -4.720  1.00  0.00     0.164 HD
BRANCH   7  10
ATOM     10  CA  PHE A   2      15.653  11.312  -5.056  1.00  0.00     0.175 C 
BRANCH  10  11
ATOM     11  N   PHE A   2      14.457  11.738  -5.767  1.00  0.00    -0.343 N 
ATOM     12  C   SER A   1      13.917  13.048  -5.633  1.00  0.00     0.239 C 
ATOM     13  O   SER A   1      14.447  13.866  -4.833  1.00  0.00    -0.273 OA
ATOM     14  H   UNL     1      13.872  10.998  -6.213  1.00  0.00     0.164 HD
BRANCH  12  15
ATOM     15  CA  SER A   1      12.662  13.409  -6.390  1.00  0.00     0.167 C 
BRANCH  15  16
ATOM     16  N   SER A   1      12.454  14.859  -6.401  1.00  0.00    -0.318 NA
ATOM     17  H   UNL     1      13.316  15.335  -6.757  1.00  0.00     0.119 HD
ATOM     18  H   UNL     1      12.284  15.188  -5.423  1.00  0.00     0.119 HD
ENDBRANCH  15  16
BRANCH  15  19
ATOM     19  CB  SER A   1      12.693  12.886  -7.842  1.00  0.00     0.184 C 
BRANCH  19  20
ATOM     20  OG  SER A   1      11.438  13.058  -8.436  1.00  0.00    -0.394 OA
ATOM     21  H   UNL     1      11.539  12.786  -9.386  1.00  0.00     0.210 HD
ENDBRANCH  19  20
ENDBRANCH  15  19
ENDBRANCH  12  15
ENDBRANCH  10  11
BRANCH  10  22
ATOM     22  CB  PHE A   2      15.611   9.773  -4.879  1.00  0.00     0.070 C 
BRANCH  22  23
ATOM     23  CG  PHE A   2      14.436   9.292  -4.091  1.00  0.00    -0.045 A 
ATOM     24  CD1 PHE A   2      13.898  10.048  -3.033  1.00  0.00     0.004 A 
ATOM     25  CD2 PHE A   2      13.964   7.991  -4.310  1.00  0.00     0.004 A 
ATOM     26  CE1 PHE A   2      12.866   9.535  -2.258  1.00  0.00     0.000 A 
ATOM     27  CE2 PHE A   2      12.937   7.477  -3.520  1.00  0.00     0.000 A 
ATOM     28  CZ  PHE A   2      12.384   8.252  -2.500  1.00  0.00     0.000 A 
ENDBRANCH  22  23
ENDBRANCH  10  22
ENDBRANCH   7  10
ENDBRANCH   5   6
BRANCH   5  29
ATOM     29  CB  LEU A   3      20.165  12.251  -5.217  1.00  0.00     0.038 C 
BRANCH  29  30
ATOM     30  CG  LEU A   3      20.417  11.678  -3.792  1.00  0.00    -0.015 C 
ATOM     31  CD1 LEU A   3      21.819  12.066  -3.316  1.00  0.00     0.007 C 
ATOM     32  CD2 LEU A   3      19.369  12.169  -2.782  1.00  0.00     0.007 C 
ENDBRANCH  29  30
ENDBRANCH   5  29
ENDBRANCH   1   5
BRANCH   3  33
ATOM     33  CA  ASN A   4      21.345   8.743  -8.164  1.00  0.00     0.180 C 
BRANCH  33  34
ATOM     34  C   ASN A   4      22.712   9.207  -8.529  1.00  0.00     0.243 C 
ATOM     35  N   ARG A   5      23.819   8.709  -7.793  1.00  0.00    -0.343 N 
ATOM     36  O   ASN A   4      22.879  10.037  -9.464  1.00  0.00    -0.273 OA
ATOM     37  H   UNL     1      23.664   7.984  -7.055  1.00  0.00     0.164 HD
BRANCH  35  38
ATOM     38  CA  ARG A   5      25.183   9.116  -8.077  1.00  0.00     0.171 C 
BRANCH  38  39
ATOM     39  C   ARG A   5      25.899   7.963  -8.692  1.00  0.00     0.243 C 
ATOM     40  N   SER A   6      25.887   7.841 -10.110  1.00  0.00    -0.339 N 
ATOM     41  O   ARG A   5      26.457   7.090  -7.975  1.00  0.00    -0.273 OA
ATOM     42  H   UNL     1      25.374   8.566 -10.662  1.00  0.00     0.164 HD
BRANCH  40  43
ATOM     43  CA  SER A   6      26.544   6.744 -10.813  1.00  0.00     0.218 C 
BRANCH  43  44
ATOM     44  C   SER A   6      27.994   6.652 -10.415  1.00  0.00     0.328 C 
ATOM     45  O   SER A   6      28.791   7.589 -10.685  1.00  0.00    -0.250 OA
BRANCH  44  46
ATOM     46  OXT SER A   6      28.456   5.522  -9.748  1.00  0.00    -0.480 OA
ATOM     47  H   UNL     1      29.428   5.442  -9.472  1.00  0.00     0.296 HD
ENDBRANCH  44  46
ENDBRANCH  43  44
BRANCH  43  48
ATOM     48  CB  SER A   6      26.413   6.955 -12.329  1.00  0.00     0.193 C 
BRANCH  48  49
ATOM     49  OG  SER A   6      27.007   5.897 -13.032  1.00  0.00    -0.394 OA
ATOM     50  H   UNL     1      26.393   5.121 -12.950  1.00  0.00     0.210 HD
ENDBRANCH  48  49
ENDBRANCH  43  48
ENDBRANCH  40  43
ENDBRANCH  38  39
BRANCH  38  51
ATOM     51  CB  ARG A   5      25.859   9.600  -6.798  1.00  0.00     0.037 C 
BRANCH  51  52
ATOM     52  CG  ARG A   5      25.164  10.857  -6.274  1.00  0.00     0.024 C 
BRANCH  52  53
ATOM     53  CD  ARG A   5      25.839  11.389  -5.017  1.00  0.00     0.116 C 
BRANCH  53  54
ATOM     54  NE  ARG A   5      25.377  10.683  -3.824  1.00  0.00    -0.357 N 
ATOM     55  CZ  ARG A   5      25.468  11.279  -2.528  1.00  0.00     0.185 C 
ATOM     56  NH2 ARG A   5      26.105  12.541  -2.351  1.00  0.00    -0.370 N 
ATOM     57  H   UNL     1      24.898   9.759  -3.922  1.00  0.00     0.163 HD
ATOM     58  H   UNL     1      26.690  12.983  -3.093  1.00  0.00     0.159 HD
ATOM     59  H   UNL     1      26.081  13.007  -1.417  1.00  0.00     0.159 HD
BRANCH  55  60
ATOM     60  NH1 ARG A   5      24.957  10.679  -1.500  1.00  0.00    -0.270 NA
ATOM     61  H   UNL     1      24.474   9.757  -1.584  1.00  0.00     0.191 HD
ENDBRANCH  55  60
ENDBRANCH  53  54
ENDBRANCH  52  53
ENDBRANCH  51  52
ENDBRANCH  38  51
ENDBRANCH  35  38
ENDBRANCH  33  34
BRANCH  33  62
ATOM     62  CB  ASN A   4      20.664   8.005  -9.318  1.00  0.00     0.134 C 
BRANCH  62  63
ATOM     63  CG  ASN A   4      21.438   6.786  -9.738  1.00  0.00     0.220 C 
ATOM     64  ND2 ASN A   4      22.432   6.872 -10.761  1.00  0.00    -0.370 N 
ATOM     65  OD1 ASN A   4      21.241   5.688  -9.152  1.00  0.00    -0.275 OA
ATOM     66  H   UNL     1      22.993   6.032 -11.023  1.00  0.00     0.159 HD
ATOM     67  H   UNL     1      22.619   7.776 -11.249  1.00  0.00     0.159 HD
ENDBRANCH  62  63
ENDBRANCH  33  62
ENDBRANCH   3  33
TORSDOF 28
