REMARK SMILES C[C@H](NC(=O)[C@H](Cc1ccccc1)NC(=O)[C@@H](N)CO)C(=O)N1CCC[C@H]1C(=O)N[C@@H](CCCNC(=N)N)C(=O)N[C@@H](CC(N)=O)C(=O)O
REMARK SMILES IDX 23 1 27 2 26 3 25 4 24 5 21 6 22 7 2 8 1 9 3 10 4 11 5 12
REMARK SMILES IDX 6 14 14 15 15 16 16 17 17 19 18 20 19 23 20 24 7 26 8 27
REMARK SMILES IDX 9 28 13 29 10 30 12 31 11 32 28 33 30 34 29 35 31 37 39 38
REMARK SMILES IDX 41 39 40 40 42 42 47 43 48 44 49 45 43 47 44 48 45 49 46 50
REMARK SMILES IDX 32 53 33 54 34 55 35 56 36 57 38 58 37 62
REMARK H PARENT 3 13 14 18 18 21 18 22 20 25 30 36 41 41 49 46 45 51 45 52
REMARK H PARENT 35 59 38 60 38 61 37 63
ROOT
ATOM      1  N   PRO A   4       0.570   1.027   1.340  1.00  0.00    -0.329 N 
ATOM      2  CA  PRO A   4      -0.521   1.232   2.296  1.00  0.00     0.174 C 
ATOM      3  CB  PRO A   4      -1.122   2.609   1.955  1.00  0.00     0.037 C 
ATOM      4  CG  PRO A   4      -0.024   3.324   1.205  1.00  0.00     0.024 C 
ATOM      5  CD  PRO A   4       0.730   2.219   0.495  1.00  0.00     0.120 C 
ENDROOT
BRANCH   1   6
ATOM      6  C   ALA A   3       1.763   0.347   1.761  1.00  0.00     0.245 C 
ATOM      7  O   ALA A   3       2.474   0.862   2.686  1.00  0.00    -0.272 OA
BRANCH   6   8
ATOM      8  CA  ALA A   3       2.412  -0.683   0.870  1.00  0.00     0.168 C 
ATOM      9  CB  ALA A   3       2.922  -1.873   1.711  1.00  0.00     0.041 C 
BRANCH   8  10
ATOM     10  N   ALA A   3       3.519  -0.063   0.128  1.00  0.00    -0.343 N 
ATOM     11  C   PHE A   2       4.263  -0.784  -0.856  1.00  0.00     0.243 C 
ATOM     12  O   PHE A   2       3.754  -1.786  -1.428  1.00  0.00    -0.273 OA
ATOM     13  H   UNL     1       3.600   0.972   0.106  1.00  0.00     0.164 HD
BRANCH  11  14
ATOM     14  CA  PHE A   2       5.663  -0.362  -1.203  1.00  0.00     0.175 C 
BRANCH  14  15
ATOM     15  N   PHE A   2       6.485  -1.552  -1.407  1.00  0.00    -0.343 N 
ATOM     16  C   SER A   1       7.244  -2.142  -0.335  1.00  0.00     0.239 C 
ATOM     17  O   SER A   1       7.552  -1.438   0.668  1.00  0.00    -0.273 OA
ATOM     18  H   UNL     1       6.342  -2.110  -2.280  1.00  0.00     0.164 HD
BRANCH  16  19
ATOM     19  CA  SER A   1       7.730  -3.565  -0.405  1.00  0.00     0.167 C 
BRANCH  19  20
ATOM     20  N   SER A   1       6.715  -4.437  -0.993  1.00  0.00    -0.318 NA
ATOM     21  H   UNL     1       5.847  -4.361  -0.414  1.00  0.00     0.119 HD
ATOM     22  H   UNL     1       7.029  -5.425  -0.884  1.00  0.00     0.119 HD
ENDBRANCH  19  20
BRANCH  19  23
ATOM     23  CB  SER A   1       9.038  -3.655  -1.207  1.00  0.00     0.184 C 
BRANCH  23  24
ATOM     24  OG  SER A   1       8.806  -3.365  -2.560  1.00  0.00    -0.394 OA
ATOM     25  H   UNL     1       8.908  -2.379  -2.664  1.00  0.00     0.210 HD
ENDBRANCH  23  24
ENDBRANCH  19  23
ENDBRANCH  16  19
ENDBRANCH  14  15
BRANCH  14  26
ATOM     26  CB  PHE A   2       5.683   0.526  -2.462  1.00  0.00     0.070 C 
BRANCH  26  27
ATOM     27  CG  PHE A   2       5.217   1.929  -2.161  1.00  0.00    -0.045 A 
ATOM     28  CD1 PHE A   2       6.020   2.784  -1.379  1.00  0.00     0.004 A 
ATOM     29  CD2 PHE A   2       3.985   2.398  -2.655  1.00  0.00     0.004 A 
ATOM     30  CE1 PHE A   2       5.593   4.084  -1.093  1.00  0.00     0.000 A 
ATOM     31  CE2 PHE A   2       3.579   3.711  -2.387  1.00  0.00     0.000 A 
ATOM     32  CZ  PHE A   2       4.379   4.556  -1.606  1.00  0.00     0.000 A 
ENDBRANCH  26  27
ENDBRANCH  14  26
ENDBRANCH  11  14
ENDBRANCH   8  10
ENDBRANCH   6   8
ENDBRANCH   1   6
BRANCH   2  33
ATOM     33  C   PRO A   4      -1.513   0.094   2.202  1.00  0.00     0.243 C 
ATOM     34  N   ARG A   5      -2.917   0.331   1.998  1.00  0.00    -0.343 N 
ATOM     35  O   PRO A   4      -1.111  -1.085   2.377  1.00  0.00    -0.273 OA
ATOM     36  H   UNL     1      -3.341   1.176   2.449  1.00  0.00     0.164 HD
BRANCH  34  37
ATOM     37  CA  ARG A   5      -3.708  -0.471   1.073  1.00  0.00     0.171 C 
BRANCH  37  38
ATOM     38  C   ARG A   5      -4.067   0.325  -0.160  1.00  0.00     0.243 C 
ATOM     39  N   ASN A   6      -4.831  -0.261  -1.230  1.00  0.00    -0.341 N 
ATOM     40  O   ARG A   5      -3.634   1.499  -0.276  1.00  0.00    -0.273 OA
ATOM     41  H   UNL     1      -5.213  -1.220  -1.098  1.00  0.00     0.164 HD
BRANCH  39  42
ATOM     42  CA  ASN A   6      -5.010   0.426  -2.520  1.00  0.00     0.201 C 
BRANCH  42  43
ATOM     43  C   ASN A   6      -5.870   1.658  -2.368  1.00  0.00     0.326 C 
ATOM     44  O   ASN A   6      -6.730   1.725  -1.451  1.00  0.00    -0.250 OA
BRANCH  43  45
ATOM     45  OXT ASN A   6      -5.738   2.707  -3.271  1.00  0.00    -0.480 OA
ATOM     46  H   UNL     1      -6.322   3.531  -3.198  1.00  0.00     0.296 HD
ENDBRANCH  43  45
ENDBRANCH  42  43
BRANCH  42  47
ATOM     47  CB  ASN A   6      -5.621  -0.525  -3.570  1.00  0.00     0.136 C 
BRANCH  47  48
ATOM     48  CG  ASN A   6      -5.444  -0.000  -4.965  1.00  0.00     0.220 C 
ATOM     49  ND2 ASN A   6      -4.219  -0.226  -5.667  1.00  0.00    -0.370 N 
ATOM     50  OD1 ASN A   6      -6.350   0.692  -5.496  1.00  0.00    -0.275 OA
ATOM     51  H   UNL     1      -3.471  -0.808  -5.249  1.00  0.00     0.159 HD
ATOM     52  H   UNL     1      -4.044   0.272  -6.577  1.00  0.00     0.159 HD
ENDBRANCH  47  48
ENDBRANCH  42  47
ENDBRANCH  39  42
ENDBRANCH  37  38
BRANCH  37  53
ATOM     53  CB  ARG A   5      -4.925  -1.065   1.799  1.00  0.00     0.037 C 
BRANCH  53  54
ATOM     54  CG  ARG A   5      -5.978  -0.035   2.252  1.00  0.00     0.024 C 
BRANCH  54  55
ATOM     55  CD  ARG A   5      -7.180  -0.732   2.909  1.00  0.00     0.116 C 
BRANCH  55  56
ATOM     56  NE  ARG A   5      -6.815  -1.347   4.187  1.00  0.00    -0.357 N 
ATOM     57  CZ  ARG A   5      -7.758  -2.069   4.998  1.00  0.00     0.185 C 
ATOM     58  NH2 ARG A   5      -7.325  -2.647   6.233  1.00  0.00    -0.370 N 
ATOM     59  H   UNL     1      -5.840  -1.255   4.553  1.00  0.00     0.163 HD
ATOM     60  H   UNL     1      -6.345  -2.513   6.575  1.00  0.00     0.159 HD
ATOM     61  H   UNL     1      -7.986  -3.204   6.817  1.00  0.00     0.159 HD
BRANCH  57  62
ATOM     62  NH1 ARG A   5      -8.994  -2.216   4.637  1.00  0.00    -0.270 NA
ATOM     63  H   UNL     1      -9.385  -1.829   3.748  1.00  0.00     0.191 HD
ENDBRANCH  57  62
ENDBRANCH  55  56
ENDBRANCH  54  55
ENDBRANCH  53  54
ENDBRANCH  37  53
ENDBRANCH  34  37
ENDBRANCH   2  33
TORSDOF 24
