REMARK SMILES CC(C)[C@H](NC(=O)[C@H](CCCNC(=N)N)NC(=O)[C@H](Cc1ccccc1)NC(=O)[C@@H](N)CO)C(=O)N[C@@H](CCCNC(=N)N)C(=O)N[C@@H](CC(N)=O)C(=O)O
REMARK SMILES IDX 6 1 7 2 5 3 8 5 16 6 17 7 18 8 19 10 27 11 28 12 29 13 30 15
REMARK SMILES IDX 31 16 32 19 33 20 20 22 21 23 22 24 26 25 23 26 25 27 24 28
REMARK SMILES IDX 9 29 10 30 11 31 12 32 13 33 15 34 14 38 4 40 34 41 36 42
REMARK SMILES IDX 35 43 37 45 45 46 47 47 46 48 48 50 53 51 54 52 55 53 49 55
REMARK SMILES IDX 50 56 51 57 52 58 38 61 39 62 40 63 41 64 42 65 44 66 43 70
REMARK SMILES IDX 2 72 1 73 3 74
REMARK H PARENT 5 4 16 9 27 14 31 17 31 18 33 21 12 35 15 36 15 37 14 39 36 44
REMARK H PARENT 47 49 55 54 51 59 51 60 41 67 44 68 44 69 43 71
ROOT
ATOM      1  C   ARG A   3      20.042  10.080  -6.470  1.00  0.00     0.243 C 
ATOM      2  O   ARG A   3      20.154   9.158  -5.616  1.00  0.00    -0.273 OA
ATOM      3  N   VAL A   4      20.572   9.919  -7.775  1.00  0.00    -0.342 N 
ATOM      4  H   UNL     1      20.417  10.665  -8.491  1.00  0.00     0.164 HD
ENDROOT
BRANCH   1   5
ATOM      5  CA  ARG A   3      19.338  11.354  -6.140  1.00  0.00     0.171 C 
BRANCH   5   6
ATOM      6  N   ARG A   3      18.087  11.047  -5.498  1.00  0.00    -0.343 N 
ATOM      7  C   PHE A   2      16.886  11.749  -5.772  1.00  0.00     0.243 C 
ATOM      8  O   PHE A   2      16.902  12.791  -6.483  1.00  0.00    -0.273 OA
ATOM      9  H   UNL     1      18.163  10.511  -4.608  1.00  0.00     0.164 HD
BRANCH   7  10
ATOM     10  CA  PHE A   2      15.650  11.313  -5.060  1.00  0.00     0.175 C 
BRANCH  10  11
ATOM     11  N   PHE A   2      14.452  11.740  -5.769  1.00  0.00    -0.343 N 
ATOM     12  C   SER A   1      13.915  13.051  -5.637  1.00  0.00     0.239 C 
ATOM     13  O   SER A   1      14.449  13.870  -4.839  1.00  0.00    -0.273 OA
ATOM     14  H   UNL     1      13.860  11.001  -6.207  1.00  0.00     0.164 HD
BRANCH  12  15
ATOM     15  CA  SER A   1      12.655  13.411  -6.383  1.00  0.00     0.167 C 
BRANCH  15  16
ATOM     16  N   SER A   1      12.467  14.863  -6.382  1.00  0.00    -0.318 NA
ATOM     17  H   UNL     1      12.304  15.175  -5.396  1.00  0.00     0.119 HD
ATOM     18  H   UNL     1      11.581  15.088  -6.890  1.00  0.00     0.119 HD
ENDBRANCH  15  16
BRANCH  15  19
ATOM     19  CB  SER A   1      12.695  12.894  -7.842  1.00  0.00     0.184 C 
BRANCH  19  20
ATOM     20  OG  SER A   1      11.440  13.037  -8.449  1.00  0.00    -0.394 OA
ATOM     21  H   UNL     1      10.855  12.333  -8.065  1.00  0.00     0.210 HD
ENDBRANCH  19  20
ENDBRANCH  15  19
ENDBRANCH  12  15
ENDBRANCH  10  11
BRANCH  10  22
ATOM     22  CB  PHE A   2      15.612   9.773  -4.892  1.00  0.00     0.070 C 
BRANCH  22  23
ATOM     23  CG  PHE A   2      14.444   9.289  -4.090  1.00  0.00    -0.045 A 
ATOM     24  CD1 PHE A   2      13.903  10.046  -3.033  1.00  0.00     0.004 A 
ATOM     25  CD2 PHE A   2      13.968   7.989  -4.310  1.00  0.00     0.004 A 
ATOM     26  CE1 PHE A   2      12.869   9.535  -2.260  1.00  0.00     0.000 A 
ATOM     27  CE2 PHE A   2      12.939   7.477  -3.521  1.00  0.00     0.000 A 
ATOM     28  CZ  PHE A   2      12.386   8.252  -2.502  1.00  0.00     0.000 A 
ENDBRANCH  22  23
ENDBRANCH  10  22
ENDBRANCH   7  10
ENDBRANCH   5   6
BRANCH   5  29
ATOM     29  CB  ARG A   3      20.189  12.252  -5.237  1.00  0.00     0.037 C 
BRANCH  29  30
ATOM     30  CG  ARG A   3      20.426  11.704  -3.810  1.00  0.00     0.024 C 
BRANCH  30  31
ATOM     31  CD  ARG A   3      21.823  12.069  -3.303  1.00  0.00     0.116 C 
BRANCH  31  32
ATOM     32  NE  ARG A   3      22.019  13.519  -3.267  1.00  0.00    -0.357 N 
ATOM     33  CZ  ARG A   3      21.393  14.410  -2.325  1.00  0.00     0.185 C 
ATOM     34  NH2 ARG A   3      21.529  15.820  -2.502  1.00  0.00    -0.370 N 
ATOM     35  H   UNL     1      22.664  13.933  -3.977  1.00  0.00     0.163 HD
ATOM     36  H   UNL     1      22.063  16.204  -3.313  1.00  0.00     0.159 HD
ATOM     37  H   UNL     1      21.091  16.485  -1.826  1.00  0.00     0.159 HD
BRANCH  33  38
ATOM     38  NH1 ARG A   3      20.726  13.967  -1.305  1.00  0.00    -0.270 NA
ATOM     39  H   UNL     1      20.593  12.955  -1.093  1.00  0.00     0.191 HD
ENDBRANCH  33  38
ENDBRANCH  31  32
ENDBRANCH  30  31
ENDBRANCH  29  30
ENDBRANCH   5  29
ENDBRANCH   1   5
BRANCH   3  40
ATOM     40  CA  VAL A   4      21.340   8.747  -8.155  1.00  0.00     0.174 C 
BRANCH  40  41
ATOM     41  C   VAL A   4      22.710   9.206  -8.526  1.00  0.00     0.243 C 
ATOM     42  N   ARG A   5      23.818   8.708  -7.790  1.00  0.00    -0.343 N 
ATOM     43  O   VAL A   4      22.876  10.031  -9.466  1.00  0.00    -0.273 OA
ATOM     44  H   UNL     1      23.662   7.983  -7.052  1.00  0.00     0.164 HD
BRANCH  42  45
ATOM     45  CA  ARG A   5      25.181   9.117  -8.072  1.00  0.00     0.171 C 
BRANCH  45  46
ATOM     46  C   ARG A   5      25.901   7.967  -8.686  1.00  0.00     0.243 C 
ATOM     47  N   ASN A   6      25.914   7.865 -10.102  1.00  0.00    -0.341 N 
ATOM     48  O   ARG A   5      26.449   7.087  -7.970  1.00  0.00    -0.273 OA
ATOM     49  H   UNL     1      25.491   8.648 -10.651  1.00  0.00     0.164 HD
BRANCH  47  50
ATOM     50  CA  ASN A   6      26.543   6.751 -10.804  1.00  0.00     0.201 C 
BRANCH  50  51
ATOM     51  C   ASN A   6      27.993   6.642 -10.416  1.00  0.00     0.326 C 
ATOM     52  O   ASN A   6      28.794   7.579 -10.677  1.00  0.00    -0.250 OA
BRANCH  51  53
ATOM     53  OXT ASN A   6      28.452   5.498  -9.770  1.00  0.00    -0.480 OA
ATOM     54  H   UNL     1      29.425   5.408  -9.502  1.00  0.00     0.296 HD
ENDBRANCH  51  53
ENDBRANCH  50  51
BRANCH  50  55
ATOM     55  CB  ASN A   6      26.425   6.947 -12.323  1.00  0.00     0.136 C 
BRANCH  55  56
ATOM     56  CG  ASN A   6      25.010   7.181 -12.773  1.00  0.00     0.220 C 
ATOM     57  ND2 ASN A   6      24.754   8.091 -13.834  1.00  0.00    -0.370 N 
ATOM     58  OD1 ASN A   6      24.053   6.559 -12.242  1.00  0.00    -0.275 OA
ATOM     59  H   UNL     1      23.775   8.258 -14.157  1.00  0.00     0.159 HD
ATOM     60  H   UNL     1      25.533   8.599 -14.307  1.00  0.00     0.159 HD
ENDBRANCH  55  56
ENDBRANCH  50  55
ENDBRANCH  47  50
ENDBRANCH  45  46
BRANCH  45  61
ATOM     61  CB  ARG A   5      25.856   9.601  -6.793  1.00  0.00     0.037 C 
BRANCH  61  62
ATOM     62  CG  ARG A   5      25.163  10.859  -6.272  1.00  0.00     0.024 C 
BRANCH  62  63
ATOM     63  CD  ARG A   5      25.837  11.392  -5.015  1.00  0.00     0.116 C 
BRANCH  63  64
ATOM     64  NE  ARG A   5      25.377  10.684  -3.823  1.00  0.00    -0.357 N 
ATOM     65  CZ  ARG A   5      25.467  11.279  -2.527  1.00  0.00     0.185 C 
ATOM     66  NH2 ARG A   5      26.104  12.542  -2.351  1.00  0.00    -0.370 N 
ATOM     67  H   UNL     1      24.898   9.760  -3.921  1.00  0.00     0.163 HD
ATOM     68  H   UNL     1      26.077  13.010  -1.417  1.00  0.00     0.159 HD
ATOM     69  H   UNL     1      26.689  12.984  -3.092  1.00  0.00     0.159 HD
BRANCH  65  70
ATOM     70  NH1 ARG A   5      24.956  10.680  -1.500  1.00  0.00    -0.270 NA
ATOM     71  H   UNL     1      24.474   9.757  -1.584  1.00  0.00     0.191 HD
ENDBRANCH  65  70
ENDBRANCH  63  64
ENDBRANCH  62  63
ENDBRANCH  61  62
ENDBRANCH  45  61
ENDBRANCH  42  45
ENDBRANCH  40  41
BRANCH  40  72
ATOM     72  CB  VAL A   4      20.644   8.001  -9.310  1.00  0.00     0.015 C 
ATOM     73  CG1 VAL A   4      21.450   6.771  -9.754  1.00  0.00     0.010 C 
ATOM     74  CG2 VAL A   4      19.224   7.566  -8.913  1.00  0.00     0.010 C 
ENDBRANCH  40  72
ENDBRANCH   3  40
TORSDOF 30
