REMARK SMILES N=C(N)NCCC[C@H](NC(=O)[C@H](CCC(N)=O)NC(=O)[C@@H]1CCCN1C(=O)[C@H](Cc1ccccc1)NC(=O)[C@@H](N)CO)C(=O)N[C@@H](CC(N)=O)C(=O)O
REMARK SMILES IDX 19 1 20 2 18 3 21 5 25 6 24 7 22 8 23 9 26 10 27 11 28 12
REMARK SMILES IDX 36 13 37 14 38 15 39 17 40 18 41 21 42 22 29 24 30 25 31 26
REMARK SMILES IDX 35 27 32 28 34 29 33 30 12 31 10 32 9 33 11 34 8 36 43 37
REMARK SMILES IDX 45 38 44 39 46 41 51 42 52 43 53 44 47 46 48 47 49 48 50 49
REMARK SMILES IDX 7 52 6 53 5 54 4 55 2 56 3 57 1 61 13 63 14 64 15 65 16 66
REMARK SMILES IDX 17 67
REMARK H PARENT 18 4 36 16 40 19 40 20 42 23 9 35 45 40 53 45 49 50 49 51 4 58
REMARK H PARENT 3 59 3 60 1 62 16 68 16 69
ROOT
ATOM      1  C   PRO A   3      20.007  10.085  -6.441  1.00  0.00     0.243 C 
ATOM      2  O   PRO A   3      20.170   9.187  -5.570  1.00  0.00    -0.273 OA
ATOM      3  N   GLN A   4      20.546   9.929  -7.750  1.00  0.00    -0.342 N 
ATOM      4  H   UNL     1      20.373  10.675  -8.462  1.00  0.00     0.164 HD
ENDROOT
BRANCH   1   5
ATOM      5  CA  PRO A   3      19.254  11.341  -6.106  1.00  0.00     0.174 C 
ATOM      6  N   PRO A   3      18.217  11.068  -5.118  1.00  0.00    -0.329 N 
ATOM      7  CD  PRO A   3      18.513  11.659  -3.822  1.00  0.00     0.120 C 
ATOM      8  CB  PRO A   3      20.175  12.370  -5.449  1.00  0.00     0.037 C 
ATOM      9  CG  PRO A   3      19.901  12.274  -3.951  1.00  0.00     0.024 C 
BRANCH   6  10
ATOM     10  C   PHE A   2      17.022  10.299  -5.360  1.00  0.00     0.246 C 
ATOM     11  O   PHE A   2      16.276   9.996  -4.388  1.00  0.00    -0.272 OA
BRANCH  10  12
ATOM     12  CA  PHE A   2      16.603   9.897  -6.757  1.00  0.00     0.176 C 
BRANCH  12  13
ATOM     13  N   PHE A   2      15.882   8.619  -6.724  1.00  0.00    -0.343 N 
ATOM     14  C   SER A   1      16.566   7.355  -6.755  1.00  0.00     0.239 C 
ATOM     15  O   SER A   1      17.823   7.313  -6.837  1.00  0.00    -0.273 OA
ATOM     16  H   UNL     1      14.857   8.615  -6.524  1.00  0.00     0.164 HD
BRANCH  14  17
ATOM     17  CA  SER A   1      15.787   6.066  -6.705  1.00  0.00     0.167 C 
BRANCH  17  18
ATOM     18  N   SER A   1      14.909   6.061  -5.534  1.00  0.00    -0.318 NA
ATOM     19  H   UNL     1      14.443   5.126  -5.476  1.00  0.00     0.119 HD
ATOM     20  H   UNL     1      15.505   6.139  -4.677  1.00  0.00     0.119 HD
ENDBRANCH  17  18
BRANCH  17  21
ATOM     21  CB  SER A   1      14.956   5.890  -7.988  1.00  0.00     0.184 C 
BRANCH  21  22
ATOM     22  OG  SER A   1      15.784   5.886  -9.121  1.00  0.00    -0.394 OA
ATOM     23  H   UNL     1      16.243   5.006  -9.133  1.00  0.00     0.210 HD
ENDBRANCH  21  22
ENDBRANCH  17  21
ENDBRANCH  14  17
ENDBRANCH  12  13
BRANCH  12  24
ATOM     24  CB  PHE A   2      15.763  10.995  -7.447  1.00  0.00     0.070 C 
BRANCH  24  25
ATOM     25  CG  PHE A   2      14.509  11.378  -6.694  1.00  0.00    -0.045 A 
ATOM     26  CD1 PHE A   2      13.278  10.775  -7.006  1.00  0.00     0.004 A 
ATOM     27  CD2 PHE A   2      14.560  12.345  -5.675  1.00  0.00     0.004 A 
ATOM     28  CE1 PHE A   2      12.123  11.124  -6.300  1.00  0.00     0.000 A 
ATOM     29  CE2 PHE A   2      13.403  12.689  -4.971  1.00  0.00     0.000 A 
ATOM     30  CZ  PHE A   2      12.185  12.079  -5.282  1.00  0.00     0.000 A 
ENDBRANCH  24  25
ENDBRANCH  12  24
ENDBRANCH  10  12
ENDBRANCH   6  10
ENDBRANCH   1   5
BRANCH   3  31
ATOM     31  CA  GLN A   4      21.336   8.767  -8.131  1.00  0.00     0.171 C 
BRANCH  31  32
ATOM     32  C   GLN A   4      22.705   9.222  -8.513  1.00  0.00     0.243 C 
ATOM     33  N   ARG A   5      23.816   8.713  -7.789  1.00  0.00    -0.343 N 
ATOM     34  O   GLN A   4      22.870  10.038  -9.461  1.00  0.00    -0.273 OA
ATOM     35  H   UNL     1      23.662   7.990  -7.049  1.00  0.00     0.164 HD
BRANCH  33  36
ATOM     36  CA  ARG A   5      25.180   9.119  -8.073  1.00  0.00     0.171 C 
BRANCH  36  37
ATOM     37  C   ARG A   5      25.900   7.968  -8.685  1.00  0.00     0.243 C 
ATOM     38  N   ASN A   6      25.913   7.865 -10.102  1.00  0.00    -0.341 N 
ATOM     39  O   ARG A   5      26.449   7.088  -7.969  1.00  0.00    -0.273 OA
ATOM     40  H   UNL     1      25.487   8.647 -10.651  1.00  0.00     0.164 HD
BRANCH  38  41
ATOM     41  CA  ASN A   6      26.542   6.751 -10.804  1.00  0.00     0.201 C 
BRANCH  41  42
ATOM     42  C   ASN A   6      27.993   6.643 -10.415  1.00  0.00     0.326 C 
ATOM     43  O   ASN A   6      28.795   7.579 -10.677  1.00  0.00    -0.250 OA
BRANCH  42  44
ATOM     44  OXT ASN A   6      28.450   5.501  -9.764  1.00  0.00    -0.480 OA
ATOM     45  H   UNL     1      29.423   5.411  -9.496  1.00  0.00     0.296 HD
ENDBRANCH  42  44
ENDBRANCH  41  42
BRANCH  41  46
ATOM     46  CB  ASN A   6      26.425   6.946 -12.323  1.00  0.00     0.136 C 
BRANCH  46  47
ATOM     47  CG  ASN A   6      25.011   7.181 -12.773  1.00  0.00     0.220 C 
ATOM     48  ND2 ASN A   6      24.754   8.090 -13.834  1.00  0.00    -0.370 N 
ATOM     49  OD1 ASN A   6      24.054   6.558 -12.243  1.00  0.00    -0.275 OA
ATOM     50  H   UNL     1      25.534   8.600 -14.306  1.00  0.00     0.159 HD
ATOM     51  H   UNL     1      23.776   8.258 -14.158  1.00  0.00     0.159 HD
ENDBRANCH  46  47
ENDBRANCH  41  46
ENDBRANCH  38  41
ENDBRANCH  36  37
BRANCH  36  52
ATOM     52  CB  ARG A   5      25.856   9.601  -6.794  1.00  0.00     0.037 C 
BRANCH  52  53
ATOM     53  CG  ARG A   5      25.164  10.858  -6.270  1.00  0.00     0.024 C 
BRANCH  53  54
ATOM     54  CD  ARG A   5      25.840  11.389  -5.014  1.00  0.00     0.116 C 
BRANCH  54  55
ATOM     55  NE  ARG A   5      25.377  10.686  -3.820  1.00  0.00    -0.357 N 
ATOM     56  CZ  ARG A   5      25.469  11.281  -2.527  1.00  0.00     0.185 C 
ATOM     57  NH2 ARG A   5      26.109  12.545  -2.352  1.00  0.00    -0.370 N 
ATOM     58  H   UNL     1      24.898   9.761  -3.912  1.00  0.00     0.163 HD
ATOM     59  H   UNL     1      26.699  12.980  -3.093  1.00  0.00     0.159 HD
ATOM     60  H   UNL     1      26.085  13.022  -1.423  1.00  0.00     0.159 HD
BRANCH  56  61
ATOM     61  NH1 ARG A   5      24.956  10.672  -1.507  1.00  0.00    -0.270 NA
ATOM     62  H   UNL     1      24.998  11.075  -0.545  1.00  0.00     0.191 HD
ENDBRANCH  56  61
ENDBRANCH  54  55
ENDBRANCH  53  54
ENDBRANCH  52  53
ENDBRANCH  36  52
ENDBRANCH  33  36
ENDBRANCH  31  32
BRANCH  31  63
ATOM     63  CB  GLN A   4      20.649   8.004  -9.271  1.00  0.00     0.045 C 
BRANCH  63  64
ATOM     64  CG  GLN A   4      21.445   6.780  -9.755  1.00  0.00     0.102 C 
BRANCH  64  65
ATOM     65  CD  GLN A   4      21.753   5.813  -8.644  1.00  0.00     0.217 C 
ATOM     66  NE2 GLN A   4      23.101   5.439  -8.360  1.00  0.00    -0.370 N 
ATOM     67  OE1 GLN A   4      20.812   5.310  -7.974  1.00  0.00    -0.275 OA
ATOM     68  H   UNL     1      23.892   5.814  -8.928  1.00  0.00     0.159 HD
ATOM     69  H   UNL     1      23.310   4.777  -7.580  1.00  0.00     0.159 HD
ENDBRANCH  64  65
ENDBRANCH  63  64
ENDBRANCH  31  63
ENDBRANCH   3  31
TORSDOF 27
