REMARK SMILES CC(C)[C@H](NC(=O)[C@H](CO)NC(=O)[C@H](Cc1ccccc1)NC(=O)[C@@H](N)CO)C(=O)N[C@@H](CCCNC(=N)N)C(=O)N[C@@H](CC(N)=O)C(=O)O
REMARK SMILES IDX 6 1 7 2 5 3 8 5 11 6 12 7 13 8 14 10 22 11 23 12 24 13 25 15
REMARK SMILES IDX 26 16 27 19 28 20 15 22 16 23 17 24 21 25 18 26 20 27 19 28
REMARK SMILES IDX 9 29 10 30 4 32 29 33 31 34 30 35 32 37 40 38 42 39 41 40
REMARK SMILES IDX 43 42 48 43 49 44 50 45 44 47 45 48 46 49 47 50 33 53 34 54
REMARK SMILES IDX 35 55 36 56 37 57 39 58 38 62 2 64 1 65 3 66
REMARK H PARENT 5 4 11 9 22 14 26 17 26 18 28 21 10 31 31 36 42 41 50 46 46 51
REMARK H PARENT 46 52 36 59 39 60 39 61 38 63
ROOT
ATOM      1  C   SER A   3       0.971   0.780   0.558  1.00  0.00     0.245 C 
ATOM      2  O   SER A   3       0.681   1.973   0.261  1.00  0.00    -0.273 OA
ATOM      3  N   VAL A   4       0.310  -0.313  -0.100  1.00  0.00    -0.342 N 
ATOM      4  H   UNL     1       0.581  -1.289   0.156  1.00  0.00     0.164 HD
ENDROOT
BRANCH   1   5
ATOM      5  CA  SER A   3       2.059   0.507   1.563  1.00  0.00     0.197 C 
BRANCH   5   6
ATOM      6  N   SER A   3       3.357   0.828   0.964  1.00  0.00    -0.340 N 
ATOM      7  C   PHE A   2       4.469  -0.080   0.968  1.00  0.00     0.243 C 
ATOM      8  O   PHE A   2       4.333  -1.256   1.406  1.00  0.00    -0.273 OA
ATOM      9  H   UNL     1       3.498   1.792   0.584  1.00  0.00     0.164 HD
BRANCH   7  10
ATOM     10  CA  PHE A   2       5.801   0.356   0.421  1.00  0.00     0.175 C 
BRANCH  10  11
ATOM     11  N   PHE A   2       6.865  -0.031   1.352  1.00  0.00    -0.343 N 
ATOM     12  C   SER A   1       7.257   0.798   2.457  1.00  0.00     0.239 C 
ATOM     13  O   SER A   1       6.668   1.893   2.668  1.00  0.00    -0.273 OA
ATOM     14  H   UNL     1       7.287  -0.983   1.264  1.00  0.00     0.164 HD
BRANCH  12  15
ATOM     15  CA  SER A   1       8.401   0.396   3.354  1.00  0.00     0.167 C 
BRANCH  15  16
ATOM     16  N   SER A   1       8.293  -1.017   3.721  1.00  0.00    -0.318 NA
ATOM     17  H   UNL     1       9.050  -1.238   4.409  1.00  0.00     0.119 HD
ATOM     18  H   UNL     1       7.391  -1.153   4.231  1.00  0.00     0.119 HD
ENDBRANCH  15  16
BRANCH  15  19
ATOM     19  CB  SER A   1       9.746   0.672   2.666  1.00  0.00     0.184 C 
BRANCH  19  20
ATOM     20  OG  SER A   1       9.899  -0.142   1.535  1.00  0.00    -0.394 OA
ATOM     21  H   UNL     1      10.767   0.119   1.126  1.00  0.00     0.210 HD
ENDBRANCH  19  20
ENDBRANCH  15  19
ENDBRANCH  12  15
ENDBRANCH  10  11
BRANCH  10  22
ATOM     22  CB  PHE A   2       6.033  -0.270  -0.965  1.00  0.00     0.070 C 
BRANCH  22  23
ATOM     23  CG  PHE A   2       7.327   0.210  -1.571  1.00  0.00    -0.045 A 
ATOM     24  CD1 PHE A   2       8.489  -0.576  -1.479  1.00  0.00     0.004 A 
ATOM     25  CD2 PHE A   2       7.398   1.473  -2.184  1.00  0.00     0.004 A 
ATOM     26  CE1 PHE A   2       9.699  -0.110  -2.003  1.00  0.00     0.000 A 
ATOM     27  CE2 PHE A   2       8.610   1.935  -2.708  1.00  0.00     0.000 A 
ATOM     28  CZ  PHE A   2       9.759   1.144  -2.619  1.00  0.00     0.000 A 
ENDBRANCH  22  23
ENDBRANCH  10  22
ENDBRANCH   7  10
ENDBRANCH   5   6
BRANCH   5  29
ATOM     29  CB  SER A   3       1.847   1.333   2.842  1.00  0.00     0.191 C 
BRANCH  29  30
ATOM     30  OG  SER A   3       2.778   0.964   3.823  1.00  0.00    -0.394 OA
ATOM     31  H   UNL     1       3.620   1.446   3.613  1.00  0.00     0.210 HD
ENDBRANCH  29  30
ENDBRANCH   5  29
ENDBRANCH   1   5
BRANCH   3  32
ATOM     32  CA  VAL A   4      -0.726  -0.128  -1.121  1.00  0.00     0.174 C 
BRANCH  32  33
ATOM     33  C   VAL A   4      -2.015  -0.712  -0.600  1.00  0.00     0.243 C 
ATOM     34  N   ARG A   5      -3.102   0.154  -0.231  1.00  0.00    -0.343 N 
ATOM     35  O   VAL A   4      -2.120  -1.963  -0.459  1.00  0.00    -0.273 OA
ATOM     36  H   UNL     1      -2.984   1.186  -0.357  1.00  0.00     0.164 HD
BRANCH  34  37
ATOM     37  CA  ARG A   5      -4.423  -0.351   0.154  1.00  0.00     0.171 C 
BRANCH  37  38
ATOM     38  C   ARG A   5      -5.355  -0.261  -1.026  1.00  0.00     0.243 C 
ATOM     39  N   ASN A   6      -6.214  -1.364  -1.355  1.00  0.00    -0.341 N 
ATOM     40  O   ARG A   5      -5.409   0.806  -1.698  1.00  0.00    -0.273 OA
ATOM     41  H   UNL     1      -6.205  -2.198  -0.727  1.00  0.00     0.164 HD
BRANCH  39  42
ATOM     42  CA  ASN A   6      -7.212  -1.282  -2.427  1.00  0.00     0.201 C 
BRANCH  42  43
ATOM     43  C   ASN A   6      -8.445  -0.566  -1.949  1.00  0.00     0.326 C 
ATOM     44  O   ASN A   6      -8.858  -0.721  -0.769  1.00  0.00    -0.250 OA
BRANCH  43  45
ATOM     45  OXT ASN A   6      -9.160   0.239  -2.832  1.00  0.00    -0.480 OA
ATOM     46  H   UNL     1      -9.998   0.721  -2.530  1.00  0.00     0.296 HD
ENDBRANCH  43  45
ENDBRANCH  42  43
BRANCH  42  47
ATOM     47  CB  ASN A   6      -7.548  -2.677  -2.996  1.00  0.00     0.136 C 
BRANCH  47  48
ATOM     48  CG  ASN A   6      -8.204  -3.594  -2.000  1.00  0.00     0.220 C 
ATOM     49  ND2 ASN A   6      -7.430  -4.545  -1.268  1.00  0.00    -0.370 N 
ATOM     50  OD1 ASN A   6      -9.447  -3.522  -1.806  1.00  0.00    -0.275 OA
ATOM     51  H   UNL     1      -7.888  -5.166  -0.566  1.00  0.00     0.159 HD
ATOM     52  H   UNL     1      -6.401  -4.629  -1.421  1.00  0.00     0.159 HD
ENDBRANCH  47  48
ENDBRANCH  42  47
ENDBRANCH  39  42
ENDBRANCH  37  38
BRANCH  37  53
ATOM     53  CB  ARG A   5      -4.958   0.466   1.344  1.00  0.00     0.037 C 
BRANCH  53  54
ATOM     54  CG  ARG A   5      -6.228  -0.155   1.950  1.00  0.00     0.024 C 
BRANCH  54  55
ATOM     55  CD  ARG A   5      -6.764   0.672   3.126  1.00  0.00     0.116 C 
BRANCH  55  56
ATOM     56  NE  ARG A   5      -7.171   2.009   2.691  1.00  0.00    -0.357 N 
ATOM     57  CZ  ARG A   5      -8.350   2.258   1.911  1.00  0.00     0.185 C 
ATOM     58  NH2 ARG A   5      -8.621   3.582   1.444  1.00  0.00    -0.370 N 
ATOM     59  H   UNL     1      -6.583   2.822   2.984  1.00  0.00     0.163 HD
ATOM     60  H   UNL     1      -9.471   3.787   0.873  1.00  0.00     0.159 HD
ATOM     61  H   UNL     1      -7.964   4.365   1.664  1.00  0.00     0.159 HD
BRANCH  57  62
ATOM     62  NH1 ARG A   5      -9.168   1.292   1.631  1.00  0.00    -0.270 NA
ATOM     63  H   UNL     1     -10.030   1.451   1.063  1.00  0.00     0.191 HD
ENDBRANCH  57  62
ENDBRANCH  55  56
ENDBRANCH  54  55
ENDBRANCH  53  54
ENDBRANCH  37  53
ENDBRANCH  34  37
ENDBRANCH  32  33
BRANCH  32  64
ATOM     64  CB  VAL A   4      -0.289  -0.788  -2.457  1.00  0.00     0.015 C 
ATOM     65  CG1 VAL A   4      -1.355  -0.602  -3.550  1.00  0.00     0.010 C 
ATOM     66  CG2 VAL A   4       1.049  -0.208  -2.944  1.00  0.00     0.010 C 
ENDBRANCH  32  64
ENDBRANCH   3  32
TORSDOF 27
