REMARK SMILES CC(C)[C@H](NC(=O)[C@H](Cc1ccccc1)NC(=O)[C@@H](N)CO)C(=O)N[C@@H](CCC(N)=O)C(=O)N[C@@H](CCCNC(=N)N)C(=O)N[C@@H](CC(N)=O)C(=O)O
REMARK SMILES IDX 23 1 24 2 25 3 4 5 5 6 6 7 7 8 8 10 16 11 17 12 18 13 19 15
REMARK SMILES IDX 20 16 21 19 22 20 9 22 10 23 11 24 15 25 12 26 14 27 13 28
REMARK SMILES IDX 2 29 1 30 3 31 26 32 32 33 34 34 33 35 35 37 43 38 45 39
REMARK SMILES IDX 44 40 46 42 51 43 52 44 53 45 47 47 48 48 49 49 50 50 36 53
REMARK SMILES IDX 37 54 38 55 39 56 40 57 42 58 41 62 27 64 28 65 29 66 30 67
REMARK SMILES IDX 31 68
REMARK H PARENT 25 4 5 9 16 14 20 17 20 18 22 21 34 36 45 41 53 46 49 51 49 52
REMARK H PARENT 39 59 42 60 42 61 41 63 30 69 30 70
ROOT
ATOM      1  C   VAL A   3      20.051  10.090  -6.463  1.00  0.00     0.243 C 
ATOM      2  O   VAL A   3      20.169   9.176  -5.600  1.00  0.00    -0.273 OA
ATOM      3  N   GLN A   4      20.561   9.915  -7.776  1.00  0.00    -0.342 N 
ATOM      4  H   UNL     1      20.395  10.653  -8.497  1.00  0.00     0.164 HD
ENDROOT
BRANCH   1   5
ATOM      5  CA  VAL A   3      19.345  11.364  -6.137  1.00  0.00     0.174 C 
BRANCH   5   6
ATOM      6  N   VAL A   3      18.086  11.034  -5.523  1.00  0.00    -0.342 N 
ATOM      7  C   PHE A   2      16.886  11.748  -5.776  1.00  0.00     0.243 C 
ATOM      8  O   PHE A   2      16.903  12.795  -6.479  1.00  0.00    -0.273 OA
ATOM      9  H   UNL     1      18.156  10.438  -4.674  1.00  0.00     0.164 HD
BRANCH   7  10
ATOM     10  CA  PHE A   2      15.651  11.313  -5.059  1.00  0.00     0.175 C 
BRANCH  10  11
ATOM     11  N   PHE A   2      14.453  11.739  -5.768  1.00  0.00    -0.343 N 
ATOM     12  C   SER A   1      13.913  13.049  -5.637  1.00  0.00     0.239 C 
ATOM     13  O   SER A   1      14.447  13.869  -4.840  1.00  0.00    -0.273 OA
ATOM     14  H   UNL     1      13.863  10.999  -6.207  1.00  0.00     0.164 HD
BRANCH  12  15
ATOM     15  CA  SER A   1      12.655  13.409  -6.387  1.00  0.00     0.167 C 
BRANCH  15  16
ATOM     16  N   SER A   1      12.467  14.862  -6.384  1.00  0.00    -0.318 NA
ATOM     17  H   UNL     1      12.301  15.172  -5.398  1.00  0.00     0.119 HD
ATOM     18  H   UNL     1      11.582  15.088  -6.894  1.00  0.00     0.119 HD
ENDBRANCH  15  16
BRANCH  15  19
ATOM     19  CB  SER A   1      12.698  12.894  -7.844  1.00  0.00     0.184 C 
BRANCH  19  20
ATOM     20  OG  SER A   1      11.440  13.041  -8.440  1.00  0.00    -0.394 OA
ATOM     21  H   UNL     1      11.550  12.779  -9.392  1.00  0.00     0.210 HD
ENDBRANCH  19  20
ENDBRANCH  15  19
ENDBRANCH  12  15
ENDBRANCH  10  11
BRANCH  10  22
ATOM     22  CB  PHE A   2      15.610   9.773  -4.887  1.00  0.00     0.070 C 
BRANCH  22  23
ATOM     23  CG  PHE A   2      14.439   9.290  -4.091  1.00  0.00    -0.045 A 
ATOM     24  CD1 PHE A   2      13.900  10.047  -3.033  1.00  0.00     0.004 A 
ATOM     25  CD2 PHE A   2      13.965   7.990  -4.310  1.00  0.00     0.004 A 
ATOM     26  CE1 PHE A   2      12.867   9.535  -2.259  1.00  0.00     0.000 A 
ATOM     27  CE2 PHE A   2      12.938   7.476  -3.520  1.00  0.00     0.000 A 
ATOM     28  CZ  PHE A   2      12.385   8.252  -2.501  1.00  0.00     0.000 A 
ENDBRANCH  22  23
ENDBRANCH  10  22
ENDBRANCH   7  10
ENDBRANCH   5   6
BRANCH   5  29
ATOM     29  CB  VAL A   3      20.158  12.287  -5.200  1.00  0.00     0.015 C 
ATOM     30  CG1 VAL A   3      20.448  11.683  -3.811  1.00  0.00     0.010 C 
ATOM     31  CG2 VAL A   3      21.461  12.747  -5.869  1.00  0.00     0.010 C 
ENDBRANCH   5  29
ENDBRANCH   1   5
BRANCH   3  32
ATOM     32  CA  GLN A   4      21.347   8.754  -8.144  1.00  0.00     0.171 C 
BRANCH  32  33
ATOM     33  C   GLN A   4      22.713   9.213  -8.522  1.00  0.00     0.243 C 
ATOM     34  N   ARG A   5      23.822   8.713  -7.789  1.00  0.00    -0.343 N 
ATOM     35  O   GLN A   4      22.877  10.034  -9.465  1.00  0.00    -0.273 OA
ATOM     36  H   UNL     1      23.667   7.996  -7.044  1.00  0.00     0.164 HD
BRANCH  34  37
ATOM     37  CA  ARG A   5      25.185   9.120  -8.073  1.00  0.00     0.171 C 
BRANCH  37  38
ATOM     38  C   ARG A   5      25.903   7.968  -8.686  1.00  0.00     0.243 C 
ATOM     39  N   ASN A   6      25.914   7.864 -10.103  1.00  0.00    -0.341 N 
ATOM     40  O   ARG A   5      26.450   7.087  -7.970  1.00  0.00    -0.273 OA
ATOM     41  H   UNL     1      25.488   8.647 -10.651  1.00  0.00     0.164 HD
BRANCH  39  42
ATOM     42  CA  ASN A   6      26.543   6.750 -10.804  1.00  0.00     0.201 C 
BRANCH  42  43
ATOM     43  C   ASN A   6      27.993   6.642 -10.416  1.00  0.00     0.326 C 
ATOM     44  O   ASN A   6      28.794   7.579 -10.677  1.00  0.00    -0.250 OA
BRANCH  43  45
ATOM     45  OXT ASN A   6      28.452   5.499  -9.769  1.00  0.00    -0.480 OA
ATOM     46  H   UNL     1      29.424   5.409  -9.500  1.00  0.00     0.296 HD
ENDBRANCH  43  45
ENDBRANCH  42  43
BRANCH  42  47
ATOM     47  CB  ASN A   6      26.425   6.946 -12.324  1.00  0.00     0.136 C 
BRANCH  47  48
ATOM     48  CG  ASN A   6      25.011   7.180 -12.773  1.00  0.00     0.220 C 
ATOM     49  ND2 ASN A   6      24.754   8.091 -13.833  1.00  0.00    -0.370 N 
ATOM     50  OD1 ASN A   6      24.054   6.558 -12.243  1.00  0.00    -0.275 OA
ATOM     51  H   UNL     1      23.775   8.258 -14.156  1.00  0.00     0.159 HD
ATOM     52  H   UNL     1      25.533   8.600 -14.306  1.00  0.00     0.159 HD
ENDBRANCH  47  48
ENDBRANCH  42  47
ENDBRANCH  39  42
ENDBRANCH  37  38
BRANCH  37  53
ATOM     53  CB  ARG A   5      25.864   9.602  -6.796  1.00  0.00     0.037 C 
BRANCH  53  54
ATOM     54  CG  ARG A   5      25.164  10.852  -6.267  1.00  0.00     0.024 C 
BRANCH  54  55
ATOM     55  CD  ARG A   5      25.840  11.388  -5.014  1.00  0.00     0.116 C 
BRANCH  55  56
ATOM     56  NE  ARG A   5      25.379  10.686  -3.819  1.00  0.00    -0.357 N 
ATOM     57  CZ  ARG A   5      25.469  11.282  -2.526  1.00  0.00     0.185 C 
ATOM     58  NH2 ARG A   5      26.108  12.547  -2.352  1.00  0.00    -0.370 N 
ATOM     59  H   UNL     1      24.902   9.759  -3.909  1.00  0.00     0.163 HD
ATOM     60  H   UNL     1      26.083  13.024  -1.423  1.00  0.00     0.159 HD
ATOM     61  H   UNL     1      26.696  12.983  -3.095  1.00  0.00     0.159 HD
BRANCH  57  62
ATOM     62  NH1 ARG A   5      24.956  10.672  -1.506  1.00  0.00    -0.270 NA
ATOM     63  H   UNL     1      24.997  11.077  -0.544  1.00  0.00     0.191 HD
ENDBRANCH  57  62
ENDBRANCH  55  56
ENDBRANCH  54  55
ENDBRANCH  53  54
ENDBRANCH  37  53
ENDBRANCH  34  37
ENDBRANCH  32  33
BRANCH  32  64
ATOM     64  CB  GLN A   4      20.657   7.994  -9.281  1.00  0.00     0.045 C 
BRANCH  64  65
ATOM     65  CG  GLN A   4      21.451   6.768  -9.761  1.00  0.00     0.102 C 
BRANCH  65  66
ATOM     66  CD  GLN A   4      21.758   5.807  -8.646  1.00  0.00     0.217 C 
ATOM     67  NE2 GLN A   4      23.106   5.441  -8.352  1.00  0.00    -0.370 N 
ATOM     68  OE1 GLN A   4      20.816   5.300  -7.980  1.00  0.00    -0.275 OA
ATOM     69  H   UNL     1      23.898   5.820  -8.917  1.00  0.00     0.159 HD
ATOM     70  H   UNL     1      23.314   4.782  -7.570  1.00  0.00     0.159 HD
ENDBRANCH  65  66
ENDBRANCH  64  65
ENDBRANCH  32  64
ENDBRANCH   3  32
TORSDOF 28
