REMARK SMILES CC(C)C[C@H](NC(=O)CNC(=O)[C@H](CCC(=O)O)NC(=O)[C@@H](N)CO)C(=O)N[C@@H](CCCNC(=N)N)C(=O)N[C@@H](CC(N)=O)C(=O)O
REMARK SMILES IDX 7 1 8 2 6 3 9 5 10 6 11 7 12 8 13 10 19 11 20 12 21 13 22 15
REMARK SMILES IDX 23 16 24 19 25 20 14 22 15 23 16 24 17 25 18 26 5 28 26 29
REMARK SMILES IDX 28 30 27 31 29 33 37 34 39 35 38 36 40 38 45 39 46 40 47 41
REMARK SMILES IDX 41 43 42 44 43 45 44 46 30 49 31 50 32 51 33 52 34 53 36 54
REMARK SMILES IDX 35 58 4 60 2 61 1 62 3 63
REMARK H PARENT 6 4 10 9 19 14 23 17 23 18 25 21 18 27 28 32 39 37 47 42 43 47
REMARK H PARENT 43 48 33 55 36 56 36 57 35 59
ROOT
ATOM      1  C   GLY A   3       2.249  -2.466  -0.586  1.00  0.00     0.240 C 
ATOM      2  O   GLY A   3       2.546  -2.956   0.537  1.00  0.00    -0.273 OA
ATOM      3  N   LEU A   4       1.132  -1.574  -0.720  1.00  0.00    -0.343 N 
ATOM      4  H   UNL     1       0.968  -1.138  -1.654  1.00  0.00     0.164 HD
ENDROOT
BRANCH   1   5
ATOM      5  CA  GLY A   3       3.104  -2.776  -1.776  1.00  0.00     0.216 C 
BRANCH   5   6
ATOM      6  N   GLY A   3       3.914  -1.614  -2.128  1.00  0.00    -0.345 N 
ATOM      7  C   GLU A   2       4.997  -1.161  -1.305  1.00  0.00     0.243 C 
ATOM      8  O   GLU A   2       5.344  -1.834  -0.296  1.00  0.00    -0.273 OA
ATOM      9  H   UNL     1       3.679  -1.087  -3.000  1.00  0.00     0.164 HD
BRANCH   7  10
ATOM     10  CA  GLU A   2       5.725   0.111  -1.658  1.00  0.00     0.171 C 
BRANCH  10  11
ATOM     11  N   GLU A   2       6.373   0.689  -0.475  1.00  0.00    -0.343 N 
ATOM     12  C   SER A   1       6.248   2.074  -0.117  1.00  0.00     0.239 C 
ATOM     13  O   SER A   1       5.654   2.878  -0.887  1.00  0.00    -0.273 OA
ATOM     14  H   UNL     1       6.963   0.075   0.131  1.00  0.00     0.164 HD
BRANCH  12  15
ATOM     15  CA  SER A   1       6.766   2.554   1.220  1.00  0.00     0.167 C 
BRANCH  15  16
ATOM     16  N   SER A   1       7.315   3.910   1.124  1.00  0.00    -0.318 NA
ATOM     17  H   UNL     1       8.079   3.913   0.409  1.00  0.00     0.119 HD
ATOM     18  H   UNL     1       6.572   4.570   0.793  1.00  0.00     0.119 HD
ENDBRANCH  15  16
BRANCH  15  19
ATOM     19  CB  SER A   1       5.655   2.509   2.276  1.00  0.00     0.184 C 
BRANCH  19  20
ATOM     20  OG  SER A   1       5.257   1.183   2.493  1.00  0.00    -0.394 OA
ATOM     21  H   UNL     1       4.528   1.220   3.165  1.00  0.00     0.210 HD
ENDBRANCH  19  20
ENDBRANCH  15  19
ENDBRANCH  12  15
ENDBRANCH  10  11
BRANCH  10  22
ATOM     22  CB  GLU A   2       6.738  -0.083  -2.808  1.00  0.00     0.047 C 
BRANCH  22  23
ATOM     23  CG  GLU A   2       7.881  -1.078  -2.521  1.00  0.00     0.125 C 
BRANCH  23  24
ATOM     24  CD  GLU A   2       7.447  -2.507  -2.649  1.00  0.00     0.303 C 
ATOM     25  OE1 GLU A   2       6.989  -2.936  -3.742  1.00  0.00    -0.252 OA
BRANCH  24  26
ATOM     26  OE2 GLU A   2       7.571  -3.368  -1.564  1.00  0.00    -0.481 OA
ATOM     27  H   UNL     1       7.277  -4.334  -1.632  1.00  0.00     0.296 HD
ENDBRANCH  24  26
ENDBRANCH  23  24
ENDBRANCH  22  23
ENDBRANCH  10  22
ENDBRANCH   7  10
ENDBRANCH   5   6
ENDBRANCH   1   5
BRANCH   3  28
ATOM     28  CA  LEU A   4       0.209  -1.307   0.390  1.00  0.00     0.171 C 
BRANCH  28  29
ATOM     29  C   LEU A   4      -1.181  -0.955  -0.094  1.00  0.00     0.243 C 
ATOM     30  N   ARG A   5      -2.295  -1.080   0.804  1.00  0.00    -0.343 N 
ATOM     31  O   LEU A   4      -1.369  -0.567  -1.278  1.00  0.00    -0.273 OA
ATOM     32  H   UNL     1      -2.107  -1.330   1.802  1.00  0.00     0.164 HD
BRANCH  30  33
ATOM     33  CA  ARG A   5      -3.672  -0.778   0.405  1.00  0.00     0.171 C 
BRANCH  33  34
ATOM     34  C   ARG A   5      -4.025   0.620   0.838  1.00  0.00     0.243 C 
ATOM     35  N   ASN A   6      -4.638   1.528  -0.091  1.00  0.00    -0.341 N 
ATOM     36  O   ARG A   5      -3.824   0.973   2.031  1.00  0.00    -0.273 OA
ATOM     37  H   UNL     1      -4.765   1.221  -1.082  1.00  0.00     0.164 HD
BRANCH  35  38
ATOM     38  CA  ASN A   6      -5.155   2.835   0.328  1.00  0.00     0.201 C 
BRANCH  38  39
ATOM     39  C   ASN A   6      -6.414   2.643   1.128  1.00  0.00     0.326 C 
ATOM     40  O   ASN A   6      -7.387   2.003   0.644  1.00  0.00    -0.250 OA
BRANCH  39  41
ATOM     41  OXT ASN A   6      -6.509   3.188   2.405  1.00  0.00    -0.480 OA
ATOM     42  H   UNL     1      -7.346   3.065   2.962  1.00  0.00     0.296 HD
ENDBRANCH  39  41
ENDBRANCH  38  39
BRANCH  38  43
ATOM     43  CB  ASN A   6      -5.414   3.724  -0.902  1.00  0.00     0.136 C 
BRANCH  43  44
ATOM     44  CG  ASN A   6      -5.841   5.108  -0.508  1.00  0.00     0.220 C 
ATOM     45  ND2 ASN A   6      -4.884   6.047  -0.014  1.00  0.00    -0.370 N 
ATOM     46  OD1 ASN A   6      -7.055   5.435  -0.586  1.00  0.00    -0.275 OA
ATOM     47  H   UNL     1      -5.184   7.007   0.267  1.00  0.00     0.159 HD
ATOM     48  H   UNL     1      -3.881   5.778   0.087  1.00  0.00     0.159 HD
ENDBRANCH  43  44
ENDBRANCH  38  43
ENDBRANCH  35  38
ENDBRANCH  33  34
BRANCH  33  49
ATOM     49  CB  ARG A   5      -4.632  -1.809   1.028  1.00  0.00     0.037 C 
BRANCH  49  50
ATOM     50  CG  ARG A   5      -6.068  -1.658   0.497  1.00  0.00     0.024 C 
BRANCH  50  51
ATOM     51  CD  ARG A   5      -6.997  -2.763   1.018  1.00  0.00     0.116 C 
BRANCH  51  52
ATOM     52  NE  ARG A   5      -6.689  -4.060   0.411  1.00  0.00    -0.357 N 
ATOM     53  CZ  ARG A   5      -7.380  -5.276   0.747  1.00  0.00     0.185 C 
ATOM     54  NH2 ARG A   5      -6.958  -6.508   0.160  1.00  0.00    -0.370 N 
ATOM     55  H   UNL     1      -5.934  -4.120  -0.310  1.00  0.00     0.163 HD
ATOM     56  H   UNL     1      -6.147  -6.534  -0.497  1.00  0.00     0.159 HD
ATOM     57  H   UNL     1      -7.459  -7.400   0.377  1.00  0.00     0.159 HD
BRANCH  53  58
ATOM     58  NH1 ARG A   5      -8.381  -5.283   1.572  1.00  0.00    -0.270 NA
ATOM     59  H   UNL     1      -8.749  -4.427   2.040  1.00  0.00     0.191 HD
ENDBRANCH  53  58
ENDBRANCH  51  52
ENDBRANCH  50  51
ENDBRANCH  49  50
ENDBRANCH  33  49
ENDBRANCH  30  33
ENDBRANCH  28  29
BRANCH  28  60
ATOM     60  CB  LEU A   4       0.781  -0.273   1.396  1.00  0.00     0.038 C 
BRANCH  60  61
ATOM     61  CG  LEU A   4       1.255   1.108   0.867  1.00  0.00    -0.015 C 
ATOM     62  CD1 LEU A   4       0.174   1.887   0.112  1.00  0.00     0.007 C 
ATOM     63  CD2 LEU A   4       2.556   1.043   0.057  1.00  0.00     0.007 C 
ENDBRANCH  60  61
ENDBRANCH  28  60
ENDBRANCH   3  28
TORSDOF 28
