REMARK SMILES N=C(N)NCCC[C@H](NC(=O)[C@H](CC(N)=O)NC(=O)[C@@H]1CCCN1C(=O)[C@H](Cc1ccccc1)NC(=O)[C@@H](N)CO)C(=O)N[C@@H](CC(N)=O)C(=O)O
REMARK SMILES IDX 18 1 19 2 17 3 20 5 24 6 23 7 21 8 22 9 25 10 26 11 27 12
REMARK SMILES IDX 35 13 36 14 37 15 38 17 39 18 40 21 41 22 28 24 29 25 30 26
REMARK SMILES IDX 34 27 31 28 33 29 32 30 12 31 10 32 9 33 11 34 8 36 42 37
REMARK SMILES IDX 44 38 43 39 45 41 50 42 51 43 52 44 46 46 47 47 48 48 49 49
REMARK SMILES IDX 7 52 6 53 5 54 4 55 2 56 3 57 1 61 13 63 14 64 15 65 16 66
REMARK H PARENT 17 4 35 16 39 19 39 20 41 23 9 35 44 40 52 45 48 50 48 51 4 58
REMARK H PARENT 3 59 3 60 1 62 15 67 15 68
ROOT
ATOM      1  C   PRO A   3      20.002  10.079  -6.444  1.00  0.00     0.243 C 
ATOM      2  O   PRO A   3      20.167   9.184  -5.572  1.00  0.00    -0.273 OA
ATOM      3  N   ASN A   4      20.546   9.923  -7.751  1.00  0.00    -0.342 N 
ATOM      4  H   UNL     1      20.379  10.673  -8.462  1.00  0.00     0.164 HD
ENDROOT
BRANCH   1   5
ATOM      5  CA  PRO A   3      19.270  11.346  -6.102  1.00  0.00     0.174 C 
ATOM      6  N   PRO A   3      18.208  11.084  -5.139  1.00  0.00    -0.329 N 
ATOM      7  CD  PRO A   3      18.499  11.643  -3.827  1.00  0.00     0.120 C 
ATOM      8  CB  PRO A   3      20.204  12.338  -5.409  1.00  0.00     0.037 C 
ATOM      9  CG  PRO A   3      19.914  12.198  -3.918  1.00  0.00     0.024 C 
BRANCH   6  10
ATOM     10  C   PHE A   2      16.975  10.426  -5.495  1.00  0.00     0.246 C 
ATOM     11  O   PHE A   2      16.829   9.974  -6.664  1.00  0.00    -0.272 OA
BRANCH  10  12
ATOM     12  CA  PHE A   2      15.847  10.245  -4.502  1.00  0.00     0.176 C 
BRANCH  12  13
ATOM     13  N   PHE A   2      14.599  10.743  -5.089  1.00  0.00    -0.343 N 
ATOM     14  C   SER A   1      14.351  12.147  -5.269  1.00  0.00     0.239 C 
ATOM     15  O   SER A   1      15.213  12.992  -4.903  1.00  0.00    -0.273 OA
ATOM     16  H   UNL     1      13.867  10.061  -5.392  1.00  0.00     0.164 HD
BRANCH  14  17
ATOM     17  CA  SER A   1      13.066  12.630  -5.887  1.00  0.00     0.167 C 
BRANCH  17  18
ATOM     18  N   SER A   1      12.930  12.080  -7.239  1.00  0.00    -0.318 NA
ATOM     19  H   UNL     1      12.643  11.076  -7.189  1.00  0.00     0.119 HD
ATOM     20  H   UNL     1      12.169  12.597  -7.737  1.00  0.00     0.119 HD
ENDBRANCH  17  18
BRANCH  17  21
ATOM     21  CB  SER A   1      11.863  12.266  -4.996  1.00  0.00     0.184 C 
BRANCH  21  22
ATOM     22  OG  SER A   1      10.691  12.865  -5.482  1.00  0.00    -0.394 OA
ATOM     23  H   UNL     1      10.303  12.240  -6.148  1.00  0.00     0.210 HD
ENDBRANCH  21  22
ENDBRANCH  17  21
ENDBRANCH  14  17
ENDBRANCH  12  13
BRANCH  12  24
ATOM     24  CB  PHE A   2      15.695   8.761  -4.113  1.00  0.00     0.070 C 
BRANCH  24  25
ATOM     25  CG  PHE A   2      16.901   8.254  -3.364  1.00  0.00    -0.045 A 
ATOM     26  CD1 PHE A   2      17.910   7.545  -4.037  1.00  0.00     0.004 A 
ATOM     27  CD2 PHE A   2      17.052   8.532  -1.995  1.00  0.00     0.004 A 
ATOM     28  CE1 PHE A   2      19.048   7.114  -3.348  1.00  0.00     0.000 A 
ATOM     29  CE2 PHE A   2      18.193   8.102  -1.310  1.00  0.00     0.000 A 
ATOM     30  CZ  PHE A   2      19.190   7.394  -1.986  1.00  0.00     0.000 A 
ENDBRANCH  24  25
ENDBRANCH  12  24
ENDBRANCH  10  12
ENDBRANCH   6  10
ENDBRANCH   1   5
BRANCH   3  31
ATOM     31  CA  ASN A   4      21.333   8.759  -8.134  1.00  0.00     0.180 C 
BRANCH  31  32
ATOM     32  C   ASN A   4      22.703   9.212  -8.519  1.00  0.00     0.243 C 
ATOM     33  N   ARG A   5      23.814   8.708  -7.791  1.00  0.00    -0.343 N 
ATOM     34  O   ASN A   4      22.867  10.032  -9.463  1.00  0.00    -0.273 OA
ATOM     35  H   UNL     1      23.661   7.979  -7.056  1.00  0.00     0.164 HD
BRANCH  33  36
ATOM     36  CA  ARG A   5      25.178   9.117  -8.073  1.00  0.00     0.171 C 
BRANCH  36  37
ATOM     37  C   ARG A   5      25.899   7.967  -8.686  1.00  0.00     0.243 C 
ATOM     38  N   ASN A   6      25.914   7.865 -10.103  1.00  0.00    -0.341 N 
ATOM     39  O   ARG A   5      26.448   7.087  -7.970  1.00  0.00    -0.273 OA
ATOM     40  H   UNL     1      25.490   8.648 -10.651  1.00  0.00     0.164 HD
BRANCH  38  41
ATOM     41  CA  ASN A   6      26.544   6.752 -10.805  1.00  0.00     0.201 C 
BRANCH  41  42
ATOM     42  C   ASN A   6      27.994   6.643 -10.415  1.00  0.00     0.326 C 
ATOM     43  O   ASN A   6      28.796   7.579 -10.676  1.00  0.00    -0.250 OA
BRANCH  42  44
ATOM     44  OXT ASN A   6      28.451   5.500  -9.765  1.00  0.00    -0.480 OA
ATOM     45  H   UNL     1      29.423   5.410  -9.494  1.00  0.00     0.296 HD
ENDBRANCH  42  44
ENDBRANCH  41  42
BRANCH  41  46
ATOM     46  CB  ASN A   6      26.430   6.950 -12.324  1.00  0.00     0.136 C 
BRANCH  46  47
ATOM     47  CG  ASN A   6      25.017   7.181 -12.776  1.00  0.00     0.220 C 
ATOM     48  ND2 ASN A   6      24.757   8.092 -13.834  1.00  0.00    -0.370 N 
ATOM     49  OD1 ASN A   6      24.063   6.553 -12.249  1.00  0.00    -0.275 OA
ATOM     50  H   UNL     1      25.534   8.607 -14.305  1.00  0.00     0.159 HD
ATOM     51  H   UNL     1      23.778   8.256 -14.158  1.00  0.00     0.159 HD
ENDBRANCH  46  47
ENDBRANCH  41  46
ENDBRANCH  38  41
ENDBRANCH  36  37
BRANCH  36  52
ATOM     52  CB  ARG A   5      25.854   9.600  -6.794  1.00  0.00     0.037 C 
BRANCH  52  53
ATOM     53  CG  ARG A   5      25.162  10.858  -6.271  1.00  0.00     0.024 C 
BRANCH  53  54
ATOM     54  CD  ARG A   5      25.840  11.389  -5.015  1.00  0.00     0.116 C 
BRANCH  54  55
ATOM     55  NE  ARG A   5      25.377  10.686  -3.821  1.00  0.00    -0.357 N 
ATOM     56  CZ  ARG A   5      25.469  11.281  -2.527  1.00  0.00     0.185 C 
ATOM     57  NH2 ARG A   5      26.109  12.545  -2.352  1.00  0.00    -0.370 N 
ATOM     58  H   UNL     1      24.896   9.762  -3.912  1.00  0.00     0.163 HD
ATOM     59  H   UNL     1      26.698  12.981  -3.094  1.00  0.00     0.159 HD
ATOM     60  H   UNL     1      26.084  13.022  -1.423  1.00  0.00     0.159 HD
BRANCH  56  61
ATOM     61  NH1 ARG A   5      24.956  10.671  -1.507  1.00  0.00    -0.270 NA
ATOM     62  H   UNL     1      24.999  11.075  -0.545  1.00  0.00     0.191 HD
ENDBRANCH  56  61
ENDBRANCH  54  55
ENDBRANCH  53  54
ENDBRANCH  52  53
ENDBRANCH  36  52
ENDBRANCH  33  36
ENDBRANCH  31  32
BRANCH  31  63
ATOM     63  CB  ASN A   4      20.638   8.003  -9.272  1.00  0.00     0.134 C 
BRANCH  63  64
ATOM     64  CG  ASN A   4      21.412   6.801  -9.746  1.00  0.00     0.220 C 
ATOM     65  ND2 ASN A   4      21.823   5.780  -8.836  1.00  0.00    -0.370 N 
ATOM     66  OD1 ASN A   4      21.645   6.666 -10.976  1.00  0.00    -0.275 OA
ATOM     67  H   UNL     1      22.373   4.961  -9.181  1.00  0.00     0.159 HD
ATOM     68  H   UNL     1      21.554   5.813  -7.829  1.00  0.00     0.159 HD
ENDBRANCH  63  64
ENDBRANCH  31  63
ENDBRANCH   3  31
TORSDOF 26
