REMARK SMILES CC(C)C[C@H](NC(=O)[C@H](Cc1ccccc1)NC(=O)[C@@H](N)CO)C(=O)NCC(=O)N[C@@H](CCCNC(=N)N)C(=O)N[C@@H](Cc1c[nH]cn1)C(=O)O
REMARK SMILES IDX 24 1 25 2 26 3 5 5 6 6 7 7 8 8 9 10 17 11 18 12 19 13 20 15
REMARK SMILES IDX 21 16 22 19 23 20 10 22 11 23 12 24 16 25 13 26 15 27 14 28
REMARK SMILES IDX 4 29 2 30 1 31 3 32 27 33 28 34 30 35 29 36 31 38 39 39
REMARK SMILES IDX 41 40 40 41 42 43 49 44 50 45 51 46 43 48 44 49 48 50 45 51
REMARK SMILES IDX 47 52 46 53 32 55 33 56 34 57 35 58 36 59 38 60 37 64
REMARK H PARENT 26 4 6 9 17 14 21 17 21 18 23 21 30 37 41 42 51 47 46 54 35 61
REMARK H PARENT 38 62 38 63 37 65
ROOT
ATOM      1  C   LEU A   3      20.060  10.078  -6.484  1.00  0.00     0.243 C 
ATOM      2  O   LEU A   3      20.180   9.153  -5.634  1.00  0.00    -0.273 OA
ATOM      3  N   GLY A   4      20.561   9.914  -7.799  1.00  0.00    -0.345 N 
ATOM      4  H   UNL     1      20.397  10.662  -8.511  1.00  0.00     0.164 HD
ENDROOT
BRANCH   1   5
ATOM      5  CA  LEU A   3      19.343  11.349  -6.148  1.00  0.00     0.171 C 
BRANCH   5   6
ATOM      6  N   LEU A   3      18.085  11.016  -5.540  1.00  0.00    -0.343 N 
ATOM      7  C   PHE A   2      16.888  11.743  -5.776  1.00  0.00     0.243 C 
ATOM      8  O   PHE A   2      16.907  12.795  -6.474  1.00  0.00    -0.273 OA
ATOM      9  H   UNL     1      18.157  10.378  -4.724  1.00  0.00     0.164 HD
BRANCH   7  10
ATOM     10  CA  PHE A   2      15.652  11.312  -5.057  1.00  0.00     0.175 C 
BRANCH  10  11
ATOM     11  N   PHE A   2      14.455  11.739  -5.768  1.00  0.00    -0.343 N 
ATOM     12  C   SER A   1      13.916  13.050  -5.636  1.00  0.00     0.239 C 
ATOM     13  O   SER A   1      14.450  13.869  -4.839  1.00  0.00    -0.273 OA
ATOM     14  H   UNL     1      13.866  11.000  -6.211  1.00  0.00     0.164 HD
BRANCH  12  15
ATOM     15  CA  SER A   1      12.656  13.409  -6.383  1.00  0.00     0.167 C 
BRANCH  15  16
ATOM     16  N   SER A   1      12.468  14.862  -6.382  1.00  0.00    -0.318 NA
ATOM     17  H   UNL     1      12.305  15.173  -5.396  1.00  0.00     0.119 HD
ATOM     18  H   UNL     1      11.581  15.086  -6.889  1.00  0.00     0.119 HD
ENDBRANCH  15  16
BRANCH  15  19
ATOM     19  CB  SER A   1      12.695  12.893  -7.842  1.00  0.00     0.184 C 
BRANCH  19  20
ATOM     20  OG  SER A   1      11.441  13.037  -8.449  1.00  0.00    -0.394 OA
ATOM     21  H   UNL     1      10.855  12.333  -8.065  1.00  0.00     0.210 HD
ENDBRANCH  19  20
ENDBRANCH  15  19
ENDBRANCH  12  15
ENDBRANCH  10  11
BRANCH  10  22
ATOM     22  CB  PHE A   2      15.610   9.773  -4.880  1.00  0.00     0.070 C 
BRANCH  22  23
ATOM     23  CG  PHE A   2      14.435   9.292  -4.092  1.00  0.00    -0.045 A 
ATOM     24  CD1 PHE A   2      13.897  10.048  -3.033  1.00  0.00     0.004 A 
ATOM     25  CD2 PHE A   2      13.964   7.991  -4.310  1.00  0.00     0.004 A 
ATOM     26  CE1 PHE A   2      12.866   9.535  -2.258  1.00  0.00     0.000 A 
ATOM     27  CE2 PHE A   2      12.937   7.477  -3.520  1.00  0.00     0.000 A 
ATOM     28  CZ  PHE A   2      12.384   8.252  -2.500  1.00  0.00     0.000 A 
ENDBRANCH  22  23
ENDBRANCH  10  22
ENDBRANCH   7  10
ENDBRANCH   5   6
BRANCH   5  29
ATOM     29  CB  LEU A   3      20.165  12.249  -5.216  1.00  0.00     0.038 C 
BRANCH  29  30
ATOM     30  CG  LEU A   3      20.417  11.677  -3.792  1.00  0.00    -0.015 C 
ATOM     31  CD1 LEU A   3      21.819  12.065  -3.316  1.00  0.00     0.007 C 
ATOM     32  CD2 LEU A   3      19.368  12.167  -2.782  1.00  0.00     0.007 C 
ENDBRANCH  29  30
ENDBRANCH   5  29
ENDBRANCH   1   5
BRANCH   3  33
ATOM     33  CA  GLY A   4      21.333   8.757  -8.204  1.00  0.00     0.216 C 
BRANCH  33  34
ATOM     34  C   GLY A   4      22.707   9.204  -8.540  1.00  0.00     0.240 C 
ATOM     35  N   ARG A   5      23.806   8.709  -7.788  1.00  0.00    -0.343 N 
ATOM     36  O   GLY A   4      22.886  10.030  -9.475  1.00  0.00    -0.273 OA
ATOM     37  H   UNL     1      23.639   7.992  -7.045  1.00  0.00     0.164 HD
BRANCH  35  38
ATOM     38  CA  ARG A   5      25.175   9.113  -8.067  1.00  0.00     0.171 C 
BRANCH  38  39
ATOM     39  C   ARG A   5      25.895   7.964  -8.686  1.00  0.00     0.243 C 
ATOM     40  N   HIS A   6      25.907   7.866 -10.104  1.00  0.00    -0.341 N 
ATOM     41  O   ARG A   5      26.449   7.084  -7.973  1.00  0.00    -0.273 OA
ATOM     42  H   UNL     1      25.480   8.653 -10.645  1.00  0.00     0.164 HD
BRANCH  40  43
ATOM     43  CA  HIS A   6      26.536   6.761 -10.818  1.00  0.00     0.198 C 
BRANCH  43  44
ATOM     44  C   HIS A   6      27.986   6.645 -10.427  1.00  0.00     0.326 C 
ATOM     45  O   HIS A   6      28.791   7.580 -10.680  1.00  0.00    -0.250 OA
BRANCH  44  46
ATOM     46  OXT HIS A   6      28.438   5.496  -9.785  1.00  0.00    -0.480 OA
ATOM     47  H   UNL     1      29.410   5.401  -9.514  1.00  0.00     0.296 HD
ENDBRANCH  44  46
ENDBRANCH  43  44
BRANCH  43  48
ATOM     48  CB  HIS A   6      26.417   6.979 -12.338  1.00  0.00     0.094 C 
BRANCH  48  49
ATOM     49  CG  HIS A   6      24.989   7.155 -12.773  1.00  0.00     0.061 A 
ATOM     50  ND1 HIS A   6      24.464   8.325 -13.190  1.00  0.00    -0.242 NA
ATOM     51  CD2 HIS A   6      24.016   6.180 -12.767  1.00  0.00     0.107 A 
ATOM     52  CE1 HIS A   6      23.170   8.029 -13.436  1.00  0.00     0.196 A 
ATOM     53  NE2 HIS A   6      22.872   6.739 -13.188  1.00  0.00    -0.351 N 
ATOM     54  H   UNL     1      21.944   6.274 -13.296  1.00  0.00     0.167 HD
ENDBRANCH  48  49
ENDBRANCH  43  48
ENDBRANCH  40  43
ENDBRANCH  38  39
BRANCH  38  55
ATOM     55  CB  ARG A   5      25.851   9.596  -6.789  1.00  0.00     0.037 C 
BRANCH  55  56
ATOM     56  CG  ARG A   5      25.162  10.857  -6.269  1.00  0.00     0.024 C 
BRANCH  56  57
ATOM     57  CD  ARG A   5      25.839  11.389  -5.014  1.00  0.00     0.116 C 
BRANCH  57  58
ATOM     58  NE  ARG A   5      25.377  10.686  -3.820  1.00  0.00    -0.357 N 
ATOM     59  CZ  ARG A   5      25.469  11.281  -2.526  1.00  0.00     0.185 C 
ATOM     60  NH2 ARG A   5      26.107  12.546  -2.352  1.00  0.00    -0.370 N 
ATOM     61  H   UNL     1      24.893   9.763  -3.911  1.00  0.00     0.163 HD
ATOM     62  H   UNL     1      26.697  12.982  -3.094  1.00  0.00     0.159 HD
ATOM     63  H   UNL     1      26.080  13.024  -1.424  1.00  0.00     0.159 HD
BRANCH  59  64
ATOM     64  NH1 ARG A   5      24.955  10.672  -1.506  1.00  0.00    -0.270 NA
ATOM     65  H   UNL     1      24.996  11.077  -0.545  1.00  0.00     0.191 HD
ENDBRANCH  59  64
ENDBRANCH  57  58
ENDBRANCH  56  57
ENDBRANCH  55  56
ENDBRANCH  38  55
ENDBRANCH  35  38
ENDBRANCH  33  34
ENDBRANCH   3  33
TORSDOF 26
