REMARK SMILES CC(C)C[C@H](NC(=O)[C@H](Cc1ccccc1)NC(=O)[C@H](CCCCN)NC(=O)[C@@H](N)CO)C(=O)N[C@@H](CCCNC(=N)N)C(=O)N[C@@H](CC(N)=O)C(=O)O
REMARK SMILES IDX 7 1 8 2 6 3 9 5 17 6 18 7 19 8 20 10 26 11 27 12 28 13 29 15
REMARK SMILES IDX 30 16 31 19 32 20 21 22 22 23 23 24 24 25 25 26 10 29 11 30
REMARK SMILES IDX 12 31 16 32 13 33 15 34 14 35 5 36 33 37 35 38 34 39 36 41
REMARK SMILES IDX 44 42 46 43 45 44 47 46 52 47 53 48 54 49 48 51 49 52 50 53
REMARK SMILES IDX 51 54 37 57 38 58 39 59 40 60 41 61 43 62 42 66 4 68 2 69
REMARK SMILES IDX 1 70 3 71
REMARK H PARENT 6 4 17 9 26 14 30 17 30 18 32 21 25 27 25 28 35 40 46 45 54 50
REMARK H PARENT 50 55 50 56 40 63 43 64 43 65 42 67
ROOT
ATOM      1  C   PHE A   3      20.043  10.088  -6.461  1.00  0.00     0.243 C 
ATOM      2  O   PHE A   3      20.154   9.168  -5.604  1.00  0.00    -0.273 OA
ATOM      3  N   LEU A   4      20.563   9.923  -7.771  1.00  0.00    -0.343 N 
ATOM      4  H   UNL     1      20.400  10.665  -8.489  1.00  0.00     0.164 HD
ENDROOT
BRANCH   1   5
ATOM      5  CA  PHE A   3      19.342  11.359  -6.123  1.00  0.00     0.175 C 
BRANCH   5   6
ATOM      6  N   PHE A   3      18.088  11.034  -5.487  1.00  0.00    -0.342 N 
ATOM      7  C   LYS A   2      16.890  11.750  -5.733  1.00  0.00     0.243 C 
ATOM      8  O   LYS A   2      16.908  12.790  -6.451  1.00  0.00    -0.273 OA
ATOM      9  H   UNL     1      18.161  10.455  -4.625  1.00  0.00     0.164 HD
BRANCH   7  10
ATOM     10  CA  LYS A   2      15.632  11.299  -5.047  1.00  0.00     0.171 C 
BRANCH  10  11
ATOM     11  N   LYS A   2      14.494  11.755  -5.814  1.00  0.00    -0.343 N 
ATOM     12  C   SER A   1      13.910  13.042  -5.638  1.00  0.00     0.239 C 
ATOM     13  O   SER A   1      14.425  13.851  -4.817  1.00  0.00    -0.273 OA
ATOM     14  H   UNL     1      14.253  11.162  -6.632  1.00  0.00     0.164 HD
BRANCH  12  15
ATOM     15  CA  SER A   1      12.644  13.404  -6.381  1.00  0.00     0.167 C 
BRANCH  15  16
ATOM     16  N   SER A   1      12.477  14.860  -6.403  1.00  0.00    -0.318 NA
ATOM     17  H   UNL     1      12.370  15.197  -5.418  1.00  0.00     0.119 HD
ATOM     18  H   UNL     1      11.566  15.088  -6.862  1.00  0.00     0.119 HD
ENDBRANCH  15  16
BRANCH  15  19
ATOM     19  CB  SER A   1      12.646  12.848  -7.827  1.00  0.00     0.184 C 
BRANCH  19  20
ATOM     20  OG  SER A   1      11.422  13.096  -8.456  1.00  0.00    -0.394 OA
ATOM     21  H   UNL     1      11.533  13.926  -8.989  1.00  0.00     0.210 HD
ENDBRANCH  19  20
ENDBRANCH  15  19
ENDBRANCH  12  15
ENDBRANCH  10  11
BRANCH  10  22
ATOM     22  CB  LYS A   2      15.565   9.754  -4.926  1.00  0.00     0.035 C 
BRANCH  22  23
ATOM     23  CG  LYS A   2      14.404   9.254  -4.056  1.00  0.00     0.004 C 
BRANCH  23  24
ATOM     24  CD  LYS A   2      13.005   9.261  -4.708  1.00  0.00     0.015 C 
BRANCH  24  25
ATOM     25  CE  LYS A   2      12.882   8.438  -6.006  1.00  0.00     0.077 C 
BRANCH  25  26
ATOM     26  NZ  LYS A   2      13.230   7.030  -5.817  1.00  0.00    -0.330 NA
ATOM     27  H   UNL     1      12.749   6.665  -4.963  1.00  0.00     0.118 HD
ATOM     28  H   UNL     1      14.262   6.949  -5.672  1.00  0.00     0.118 HD
ENDBRANCH  25  26
ENDBRANCH  24  25
ENDBRANCH  23  24
ENDBRANCH  22  23
ENDBRANCH  10  22
ENDBRANCH   7  10
ENDBRANCH   5   6
BRANCH   5  29
ATOM     29  CB  PHE A   3      20.190  12.253  -5.204  1.00  0.00     0.070 C 
BRANCH  29  30
ATOM     30  CG  PHE A   3      20.390  11.687  -3.813  1.00  0.00    -0.045 A 
ATOM     31  CD1 PHE A   3      19.488  12.015  -2.785  1.00  0.00     0.004 A 
ATOM     32  CD2 PHE A   3      21.441  10.794  -3.545  1.00  0.00     0.004 A 
ATOM     33  CE1 PHE A   3      19.623  11.440  -1.518  1.00  0.00     0.000 A 
ATOM     34  CE2 PHE A   3      21.553  10.199  -2.285  1.00  0.00     0.000 A 
ATOM     35  CZ  PHE A   3      20.650  10.526  -1.271  1.00  0.00     0.000 A 
ENDBRANCH  29  30
ENDBRANCH   5  29
ENDBRANCH   1   5
BRANCH   3  36
ATOM     36  CA  LEU A   4      21.348   8.761  -8.139  1.00  0.00     0.171 C 
BRANCH  36  37
ATOM     37  C   LEU A   4      22.713   9.217  -8.520  1.00  0.00     0.243 C 
ATOM     38  N   ARG A   5      23.822   8.720  -7.785  1.00  0.00    -0.343 N 
ATOM     39  O   LEU A   4      22.877  10.033  -9.468  1.00  0.00    -0.273 OA
ATOM     40  H   UNL     1      23.666   8.031  -7.014  1.00  0.00     0.164 HD
BRANCH  38  41
ATOM     41  CA  ARG A   5      25.185   9.122  -8.073  1.00  0.00     0.171 C 
BRANCH  41  42
ATOM     42  C   ARG A   5      25.900   7.968  -8.685  1.00  0.00     0.243 C 
ATOM     43  N   ASN A   6      25.913   7.864 -10.102  1.00  0.00    -0.341 N 
ATOM     44  O   ARG A   5      26.447   7.087  -7.969  1.00  0.00    -0.273 OA
ATOM     45  H   UNL     1      25.488   8.647 -10.651  1.00  0.00     0.164 HD
BRANCH  43  46
ATOM     46  CA  ASN A   6      26.542   6.751 -10.804  1.00  0.00     0.201 C 
BRANCH  46  47
ATOM     47  C   ASN A   6      27.993   6.642 -10.416  1.00  0.00     0.326 C 
ATOM     48  O   ASN A   6      28.794   7.579 -10.677  1.00  0.00    -0.250 OA
BRANCH  47  49
ATOM     49  OXT ASN A   6      28.451   5.499  -9.768  1.00  0.00    -0.480 OA
ATOM     50  H   UNL     1      29.424   5.409  -9.499  1.00  0.00     0.296 HD
ENDBRANCH  47  49
ENDBRANCH  46  47
BRANCH  46  51
ATOM     51  CB  ASN A   6      26.424   6.947 -12.323  1.00  0.00     0.136 C 
BRANCH  51  52
ATOM     52  CG  ASN A   6      25.010   7.180 -12.773  1.00  0.00     0.220 C 
ATOM     53  ND2 ASN A   6      24.753   8.090 -13.833  1.00  0.00    -0.370 N 
ATOM     54  OD1 ASN A   6      24.053   6.558 -12.243  1.00  0.00    -0.275 OA
ATOM     55  H   UNL     1      23.775   8.258 -14.156  1.00  0.00     0.159 HD
ATOM     56  H   UNL     1      25.533   8.600 -14.306  1.00  0.00     0.159 HD
ENDBRANCH  51  52
ENDBRANCH  46  51
ENDBRANCH  43  46
ENDBRANCH  41  42
BRANCH  41  57
ATOM     57  CB  ARG A   5      25.863   9.605  -6.795  1.00  0.00     0.037 C 
BRANCH  57  58
ATOM     58  CG  ARG A   5      25.165  10.859  -6.271  1.00  0.00     0.024 C 
BRANCH  58  59
ATOM     59  CD  ARG A   5      25.839  11.391  -5.014  1.00  0.00     0.116 C 
BRANCH  59  60
ATOM     60  NE  ARG A   5      25.379  10.685  -3.821  1.00  0.00    -0.357 N 
ATOM     61  CZ  ARG A   5      25.471  11.282  -2.526  1.00  0.00     0.185 C 
ATOM     62  NH2 ARG A   5      26.097  12.550  -2.353  1.00  0.00    -0.370 N 
ATOM     63  H   UNL     1      24.903   9.758  -3.917  1.00  0.00     0.163 HD
ATOM     64  H   UNL     1      26.077  13.014  -1.418  1.00  0.00     0.159 HD
ATOM     65  H   UNL     1      26.675  12.998  -3.097  1.00  0.00     0.159 HD
BRANCH  61  66
ATOM     66  NH1 ARG A   5      24.987  10.672  -1.492  1.00  0.00    -0.270 NA
ATOM     67  H   UNL     1      24.542   9.731  -1.565  1.00  0.00     0.191 HD
ENDBRANCH  61  66
ENDBRANCH  59  60
ENDBRANCH  58  59
ENDBRANCH  57  58
ENDBRANCH  41  57
ENDBRANCH  38  41
ENDBRANCH  36  37
BRANCH  36  68
ATOM     68  CB  LEU A   4      20.654   8.000  -9.271  1.00  0.00     0.038 C 
BRANCH  68  69
ATOM     69  CG  LEU A   4      21.448   6.772  -9.768  1.00  0.00    -0.015 C 
ATOM     70  CD1 LEU A   4      21.762   5.779  -8.639  1.00  0.00     0.007 C 
ATOM     71  CD2 LEU A   4      20.661   6.068 -10.877  1.00  0.00     0.007 C 
ENDBRANCH  68  69
ENDBRANCH  36  68
ENDBRANCH   3  36
TORSDOF 31
