REMARK SMILES CC(C)C[C@H](NC(=O)[C@H](CCCCN)NC(=O)[C@@H]1CCCN1C(=O)[C@@H](N)CO)C(=O)N[C@@H](CCCNC(=N)N)C(=O)N[C@@H](CC(N)=O)C(=O)O
REMARK SMILES IDX 7 1 8 2 6 3 9 5 15 6 16 7 17 8 18 10 22 11 21 12 19 13 20 14
REMARK SMILES IDX 23 15 24 16 25 17 26 18 27 21 28 22 10 24 11 25 12 26 13 27
REMARK SMILES IDX 14 28 5 31 29 32 31 33 30 34 32 36 40 37 42 38 41 39 43 41
REMARK SMILES IDX 48 42 49 43 50 44 44 46 45 47 46 48 47 49 33 52 34 53 35 54
REMARK SMILES IDX 36 55 37 56 39 57 38 61 4 63 2 64 1 65 3 66
REMARK H PARENT 6 4 15 9 26 19 26 20 28 23 14 29 14 30 31 35 42 40 50 45 46 50
REMARK H PARENT 46 51 36 58 39 59 39 60 38 62
ROOT
ATOM      1  C   LYS A   3      20.022  10.069  -6.464  1.00  0.00     0.243 C 
ATOM      2  O   LYS A   3      20.152   9.150  -5.610  1.00  0.00    -0.273 OA
ATOM      3  N   LEU A   4      20.561   9.921  -7.769  1.00  0.00    -0.343 N 
ATOM      4  H   UNL     1      20.399  10.666  -8.485  1.00  0.00     0.164 HD
ENDROOT
BRANCH   1   5
ATOM      5  CA  LYS A   3      19.298  11.328  -6.126  1.00  0.00     0.171 C 
BRANCH   5   6
ATOM      6  N   LYS A   3      18.026  11.007  -5.503  1.00  0.00    -0.343 N 
ATOM      7  C   PRO A   2      16.855  11.777  -5.746  1.00  0.00     0.243 C 
ATOM      8  O   PRO A   2      16.915  12.819  -6.454  1.00  0.00    -0.273 OA
ATOM      9  H   UNL     1      18.003  10.277  -4.755  1.00  0.00     0.164 HD
BRANCH   7  10
ATOM     10  CA  PRO A   2      15.552  11.378  -5.110  1.00  0.00     0.174 C 
ATOM     11  N   PRO A   2      15.449   9.929  -4.957  1.00  0.00    -0.329 N 
ATOM     12  CD  PRO A   2      15.494   9.516  -3.562  1.00  0.00     0.120 C 
ATOM     13  CB  PRO A   2      15.441  11.944  -3.693  1.00  0.00     0.037 C 
ATOM     14  CG  PRO A   2      15.751  10.782  -2.756  1.00  0.00     0.024 C 
BRANCH  11  15
ATOM     15  C   SER A   1      15.519   8.966  -6.029  1.00  0.00     0.242 C 
ATOM     16  O   SER A   1      16.218   7.928  -5.869  1.00  0.00    -0.273 OA
BRANCH  15  17
ATOM     17  CA  SER A   1      14.751   9.116  -7.323  1.00  0.00     0.167 C 
BRANCH  17  18
ATOM     18  N   SER A   1      13.346   9.428  -7.054  1.00  0.00    -0.318 NA
ATOM     19  H   UNL     1      13.246  10.430  -6.779  1.00  0.00     0.119 HD
ATOM     20  H   UNL     1      12.804   9.305  -7.941  1.00  0.00     0.119 HD
ENDBRANCH  17  18
BRANCH  17  21
ATOM     21  CB  SER A   1      15.386  10.130  -8.294  1.00  0.00     0.184 C 
BRANCH  21  22
ATOM     22  OG  SER A   1      16.757   9.880  -8.459  1.00  0.00    -0.394 OA
ATOM     23  H   UNL     1      16.832   9.060  -9.013  1.00  0.00     0.210 HD
ENDBRANCH  21  22
ENDBRANCH  17  21
ENDBRANCH  15  17
ENDBRANCH  11  15
ENDBRANCH   7  10
ENDBRANCH   5   6
BRANCH   5  24
ATOM     24  CB  LYS A   3      20.150  12.234  -5.230  1.00  0.00     0.035 C 
BRANCH  24  25
ATOM     25  CG  LYS A   3      20.380  11.695  -3.803  1.00  0.00     0.004 C 
BRANCH  25  26
ATOM     26  CD  LYS A   3      21.771  12.083  -3.291  1.00  0.00     0.015 C 
BRANCH  26  27
ATOM     27  CE  LYS A   3      21.886  11.914  -1.766  1.00  0.00     0.077 C 
BRANCH  27  28
ATOM     28  NZ  LYS A   3      21.770  10.517  -1.347  1.00  0.00    -0.330 NA
ATOM     29  H   UNL     1      20.776  10.211  -1.452  1.00  0.00     0.118 HD
ATOM     30  H   UNL     1      22.357   9.915  -1.969  1.00  0.00     0.118 HD
ENDBRANCH  27  28
ENDBRANCH  26  27
ENDBRANCH  25  26
ENDBRANCH  24  25
ENDBRANCH   5  24
ENDBRANCH   1   5
BRANCH   3  31
ATOM     31  CA  LEU A   4      21.347   8.761  -8.140  1.00  0.00     0.171 C 
BRANCH  31  32
ATOM     32  C   LEU A   4      22.712   9.217  -8.521  1.00  0.00     0.243 C 
ATOM     33  N   ARG A   5      23.822   8.721  -7.786  1.00  0.00    -0.343 N 
ATOM     34  O   LEU A   4      22.876  10.034  -9.468  1.00  0.00    -0.273 OA
ATOM     35  H   UNL     1      23.666   8.031  -7.016  1.00  0.00     0.164 HD
BRANCH  33  36
ATOM     36  CA  ARG A   5      25.185   9.122  -8.073  1.00  0.00     0.171 C 
BRANCH  36  37
ATOM     37  C   ARG A   5      25.900   7.968  -8.685  1.00  0.00     0.243 C 
ATOM     38  N   ASN A   6      25.914   7.864 -10.102  1.00  0.00    -0.341 N 
ATOM     39  O   ARG A   5      26.447   7.087  -7.969  1.00  0.00    -0.273 OA
ATOM     40  H   UNL     1      25.492   8.648 -10.651  1.00  0.00     0.164 HD
BRANCH  38  41
ATOM     41  CA  ASN A   6      26.541   6.749 -10.802  1.00  0.00     0.201 C 
BRANCH  41  42
ATOM     42  C   ASN A   6      27.995   6.641 -10.413  1.00  0.00     0.326 C 
ATOM     43  O   ASN A   6      28.792   7.579 -10.678  1.00  0.00    -0.250 OA
BRANCH  42  44
ATOM     44  OXT ASN A   6      28.473   5.507  -9.761  1.00  0.00    -0.480 OA
ATOM     45  H   UNL     1      27.862   4.733  -9.530  1.00  0.00     0.296 HD
ENDBRANCH  42  44
ENDBRANCH  41  42
BRANCH  41  46
ATOM     46  CB  ASN A   6      26.427   6.946 -12.322  1.00  0.00     0.136 C 
BRANCH  46  47
ATOM     47  CG  ASN A   6      25.012   7.182 -12.774  1.00  0.00     0.220 C 
ATOM     48  ND2 ASN A   6      24.747   8.089 -13.835  1.00  0.00    -0.370 N 
ATOM     49  OD1 ASN A   6      24.054   6.561 -12.245  1.00  0.00    -0.275 OA
ATOM     50  H   UNL     1      25.516   8.606 -14.317  1.00  0.00     0.159 HD
ATOM     51  H   UNL     1      25.515   8.606 -14.317  1.00  0.00     0.159 HD
ENDBRANCH  46  47
ENDBRANCH  41  46
ENDBRANCH  38  41
ENDBRANCH  36  37
BRANCH  36  52
ATOM     52  CB  ARG A   5      25.862   9.605  -6.795  1.00  0.00     0.037 C 
BRANCH  52  53
ATOM     53  CG  ARG A   5      25.163  10.859  -6.269  1.00  0.00     0.024 C 
BRANCH  53  54
ATOM     54  CD  ARG A   5      25.838  11.392  -5.014  1.00  0.00     0.116 C 
BRANCH  54  55
ATOM     55  NE  ARG A   5      25.378  10.687  -3.820  1.00  0.00    -0.357 N 
ATOM     56  CZ  ARG A   5      25.478  11.279  -2.526  1.00  0.00     0.185 C 
ATOM     57  NH2 ARG A   5      26.106  12.548  -2.352  1.00  0.00    -0.370 N 
ATOM     58  H   UNL     1      24.894   9.764  -3.911  1.00  0.00     0.163 HD
ATOM     59  H   UNL     1      26.685  12.993  -3.097  1.00  0.00     0.159 HD
ATOM     60  H   UNL     1      26.082  13.023  -1.422  1.00  0.00     0.159 HD
BRANCH  56  61
ATOM     61  NH1 ARG A   5      24.984  10.658  -1.502  1.00  0.00    -0.270 NA
ATOM     62  H   UNL     1      25.035  11.058  -0.538  1.00  0.00     0.191 HD
ENDBRANCH  56  61
ENDBRANCH  54  55
ENDBRANCH  53  54
ENDBRANCH  52  53
ENDBRANCH  36  52
ENDBRANCH  33  36
ENDBRANCH  31  32
BRANCH  31  63
ATOM     63  CB  LEU A   4      20.654   8.000  -9.272  1.00  0.00     0.038 C 
BRANCH  63  64
ATOM     64  CG  LEU A   4      21.447   6.772  -9.769  1.00  0.00    -0.015 C 
ATOM     65  CD1 LEU A   4      21.761   5.779  -8.639  1.00  0.00     0.007 C 
ATOM     66  CD2 LEU A   4      20.660   6.068 -10.877  1.00  0.00     0.007 C 
ENDBRANCH  63  64
ENDBRANCH  31  63
ENDBRANCH   3  31
TORSDOF 29
