REMARK SMILES CC(C)C[C@H](NC(=O)[C@H](CCCCN)NC(=O)[C@H](Cc1ccccc1)NC(=O)[C@@H](N)CO)C(=O)N[C@@H](CCCNC(=N)N)C(=O)NCC(=O)O
REMARK SMILES IDX 7 1 8 2 6 3 9 5 15 6 16 7 17 8 18 10 26 11 27 12 28 13 29 15
REMARK SMILES IDX 30 16 31 19 32 20 19 22 20 23 21 24 25 25 22 26 24 27 23 28
REMARK SMILES IDX 10 29 11 30 12 31 13 32 14 33 5 36 33 37 35 38 34 39 36 41
REMARK SMILES IDX 44 42 46 43 45 44 47 46 48 47 49 48 50 49 37 51 38 52 39 53
REMARK SMILES IDX 40 54 41 55 43 56 42 60 4 62 2 63 1 64 3 65
REMARK H PARENT 6 4 15 9 26 14 30 17 30 18 32 21 14 34 14 35 35 40 46 45 50 50
REMARK H PARENT 40 57 43 58 43 59 42 61
ROOT
ATOM      1  C   LYS A   3      20.037  10.083  -6.471  1.00  0.00     0.243 C 
ATOM      2  O   LYS A   3      20.150   9.162  -5.615  1.00  0.00    -0.273 OA
ATOM      3  N   LEU A   4      20.565   9.921  -7.777  1.00  0.00    -0.343 N 
ATOM      4  H   UNL     1      20.404  10.663  -8.496  1.00  0.00     0.164 HD
ENDROOT
BRANCH   1   5
ATOM      5  CA  LYS A   3      19.336  11.357  -6.140  1.00  0.00     0.171 C 
BRANCH   5   6
ATOM      6  N   LYS A   3      18.087  11.049  -5.496  1.00  0.00    -0.343 N 
ATOM      7  C   PHE A   2      16.885  11.749  -5.771  1.00  0.00     0.243 C 
ATOM      8  O   PHE A   2      16.901  12.791  -6.483  1.00  0.00    -0.273 OA
ATOM      9  H   UNL     1      18.163  10.515  -4.605  1.00  0.00     0.164 HD
BRANCH   7  10
ATOM     10  CA  PHE A   2      15.650  11.313  -5.058  1.00  0.00     0.175 C 
BRANCH  10  11
ATOM     11  N   PHE A   2      14.454  11.740  -5.768  1.00  0.00    -0.343 N 
ATOM     12  C   SER A   1      13.917  13.050  -5.633  1.00  0.00     0.239 C 
ATOM     13  O   SER A   1      14.449  13.867  -4.832  1.00  0.00    -0.273 OA
ATOM     14  H   UNL     1      13.864  11.001  -6.209  1.00  0.00     0.164 HD
BRANCH  12  15
ATOM     15  CA  SER A   1      12.661  13.412  -6.386  1.00  0.00     0.167 C 
BRANCH  15  16
ATOM     16  N   SER A   1      12.454  14.861  -6.399  1.00  0.00    -0.318 NA
ATOM     17  H   UNL     1      12.285  15.191  -5.420  1.00  0.00     0.119 HD
ATOM     18  H   UNL     1      13.315  15.338  -6.756  1.00  0.00     0.119 HD
ENDBRANCH  15  16
BRANCH  15  19
ATOM     19  CB  SER A   1      12.689  12.887  -7.840  1.00  0.00     0.184 C 
BRANCH  19  20
ATOM     20  OG  SER A   1      11.438  13.053  -8.445  1.00  0.00    -0.394 OA
ATOM     21  H   UNL     1      10.839  12.360  -8.061  1.00  0.00     0.210 HD
ENDBRANCH  19  20
ENDBRANCH  15  19
ENDBRANCH  12  15
ENDBRANCH  10  11
BRANCH  10  22
ATOM     22  CB  PHE A   2      15.612   9.773  -4.891  1.00  0.00     0.070 C 
BRANCH  22  23
ATOM     23  CG  PHE A   2      14.444   9.289  -4.090  1.00  0.00    -0.045 A 
ATOM     24  CD1 PHE A   2      13.903  10.046  -3.033  1.00  0.00     0.004 A 
ATOM     25  CD2 PHE A   2      13.968   7.989  -4.310  1.00  0.00     0.004 A 
ATOM     26  CE1 PHE A   2      12.869   9.535  -2.260  1.00  0.00     0.000 A 
ATOM     27  CE2 PHE A   2      12.939   7.477  -3.521  1.00  0.00     0.000 A 
ATOM     28  CZ  PHE A   2      12.386   8.252  -2.502  1.00  0.00     0.000 A 
ENDBRANCH  22  23
ENDBRANCH  10  22
ENDBRANCH   7  10
ENDBRANCH   5   6
BRANCH   5  29
ATOM     29  CB  LYS A   3      20.188  12.255  -5.238  1.00  0.00     0.035 C 
BRANCH  29  30
ATOM     30  CG  LYS A   3      20.428  11.708  -3.811  1.00  0.00     0.004 C 
BRANCH  30  31
ATOM     31  CD  LYS A   3      21.827  12.066  -3.298  1.00  0.00     0.015 C 
BRANCH  31  32
ATOM     32  CE  LYS A   3      22.040  13.573  -3.095  1.00  0.00     0.077 C 
BRANCH  32  33
ATOM     33  NZ  LYS A   3      21.126  14.097  -2.085  1.00  0.00    -0.330 NA
ATOM     34  H   UNL     1      21.272  15.131  -2.030  1.00  0.00     0.118 HD
ATOM     35  H   UNL     1      21.408  13.708  -1.155  1.00  0.00     0.118 HD
ENDBRANCH  32  33
ENDBRANCH  31  32
ENDBRANCH  30  31
ENDBRANCH  29  30
ENDBRANCH   5  29
ENDBRANCH   1   5
BRANCH   3  36
ATOM     36  CA  LEU A   4      21.350   8.760  -8.143  1.00  0.00     0.171 C 
BRANCH  36  37
ATOM     37  C   LEU A   4      22.714   9.217  -8.524  1.00  0.00     0.243 C 
ATOM     38  N   ARG A   5      23.824   8.720  -7.793  1.00  0.00    -0.343 N 
ATOM     39  O   LEU A   4      22.875  10.035  -9.470  1.00  0.00    -0.273 OA
ATOM     40  H   UNL     1      23.671   8.031  -7.022  1.00  0.00     0.164 HD
BRANCH  38  41
ATOM     41  CA  ARG A   5      25.187   9.120  -8.087  1.00  0.00     0.171 C 
BRANCH  41  42
ATOM     42  C   ARG A   5      25.898   7.961  -8.698  1.00  0.00     0.243 C 
ATOM     43  N   GLY A   6      25.892   7.823 -10.117  1.00  0.00    -0.343 N 
ATOM     44  O   ARG A   5      26.454   7.092  -7.972  1.00  0.00    -0.273 OA
ATOM     45  H   UNL     1      25.398   8.536 -10.701  1.00  0.00     0.164 HD
BRANCH  43  46
ATOM     46  CA  GLY A   6      26.551   6.716 -10.794  1.00  0.00     0.238 C 
BRANCH  46  47
ATOM     47  C   GLY A   6      28.000   6.644 -10.414  1.00  0.00     0.322 C 
ATOM     48  O   GLY A   6      28.781   7.588 -10.704  1.00  0.00    -0.250 OA
BRANCH  47  49
ATOM     49  OXT GLY A   6      28.483   5.528  -9.737  1.00  0.00    -0.480 OA
ATOM     50  H   UNL     1      29.458   5.464  -9.471  1.00  0.00     0.296 HD
ENDBRANCH  47  49
ENDBRANCH  46  47
ENDBRANCH  43  46
ENDBRANCH  41  42
BRANCH  41  51
ATOM     51  CB  ARG A   5      25.865   9.607  -6.808  1.00  0.00     0.037 C 
BRANCH  51  52
ATOM     52  CG  ARG A   5      25.165  10.858  -6.276  1.00  0.00     0.024 C 
BRANCH  52  53
ATOM     53  CD  ARG A   5      25.839  11.390  -5.018  1.00  0.00     0.116 C 
BRANCH  53  54
ATOM     54  NE  ARG A   5      25.377  10.684  -3.825  1.00  0.00    -0.357 N 
ATOM     55  CZ  ARG A   5      25.467  11.279  -2.529  1.00  0.00     0.185 C 
ATOM     56  NH2 ARG A   5      26.103  12.542  -2.352  1.00  0.00    -0.370 N 
ATOM     57  H   UNL     1      24.900   9.758  -3.923  1.00  0.00     0.163 HD
ATOM     58  H   UNL     1      26.076  13.010  -1.419  1.00  0.00     0.159 HD
ATOM     59  H   UNL     1      26.688  12.984  -3.093  1.00  0.00     0.159 HD
BRANCH  55  60
ATOM     60  NH1 ARG A   5      24.956  10.680  -1.501  1.00  0.00    -0.270 NA
ATOM     61  H   UNL     1      24.474   9.757  -1.585  1.00  0.00     0.191 HD
ENDBRANCH  55  60
ENDBRANCH  53  54
ENDBRANCH  52  53
ENDBRANCH  51  52
ENDBRANCH  41  51
ENDBRANCH  38  41
ENDBRANCH  36  37
BRANCH  36  62
ATOM     62  CB  LEU A   4      20.657   7.999  -9.274  1.00  0.00     0.038 C 
BRANCH  62  63
ATOM     63  CG  LEU A   4      21.449   6.769  -9.771  1.00  0.00    -0.015 C 
ATOM     64  CD1 LEU A   4      21.763   5.778  -8.640  1.00  0.00     0.007 C 
ATOM     65  CD2 LEU A   4      20.658   6.065 -10.876  1.00  0.00     0.007 C 
ENDBRANCH  62  63
ENDBRANCH  36  62
ENDBRANCH   3  36
TORSDOF 29
