REMARK SMILES N=C(N)NCCC[C@H](NC(=O)CNC(=O)CNC(=O)[C@H](Cc1ccccc1)NC(=O)[C@@H](N)CO)C(=O)N[C@@H](CC(N)=O)C(=O)O
REMARK SMILES IDX 14 1 15 2 13 3 16 5 17 6 18 7 19 8 20 10 28 11 29 12 30 13
REMARK SMILES IDX 31 15 32 16 33 19 34 20 21 22 22 23 23 24 27 25 24 26 26 27
REMARK SMILES IDX 25 28 12 29 10 30 9 31 11 32 8 34 35 35 37 36 36 37 38 39
REMARK SMILES IDX 43 40 44 41 45 42 39 44 40 45 41 46 42 47 7 50 6 51 5 52
REMARK SMILES IDX 4 53 2 54 3 55 1 59
REMARK H PARENT 13 4 17 9 28 14 32 17 32 18 34 21 9 33 37 38 45 43 41 48 41 49
REMARK H PARENT 4 56 3 57 3 58 1 60
ROOT
ATOM      1  C   GLY A   3      20.048  10.090  -6.475  1.00  0.00     0.239 C 
ATOM      2  O   GLY A   3      20.188   9.192  -5.598  1.00  0.00    -0.273 OA
ATOM      3  N   GLY A   4      20.549   9.907  -7.791  1.00  0.00    -0.346 N 
ATOM      4  H   UNL     1      20.373  10.642  -8.513  1.00  0.00     0.164 HD
ENDROOT
BRANCH   1   5
ATOM      5  CA  GLY A   3      19.358  11.368  -6.154  1.00  0.00     0.216 C 
BRANCH   5   6
ATOM      6  N   GLY A   3      18.116  11.077  -5.481  1.00  0.00    -0.345 N 
ATOM      7  C   PHE A   2      16.901  11.755  -5.772  1.00  0.00     0.243 C 
ATOM      8  O   PHE A   2      16.906  12.790  -6.492  1.00  0.00    -0.273 OA
ATOM      9  H   UNL     1      18.217  10.599  -4.558  1.00  0.00     0.164 HD
BRANCH   7  10
ATOM     10  CA  PHE A   2      15.662  11.315  -5.060  1.00  0.00     0.175 C 
BRANCH  10  11
ATOM     11  N   PHE A   2      14.463  11.740  -5.769  1.00  0.00    -0.343 N 
ATOM     12  C   SER A   1      13.921  13.048  -5.633  1.00  0.00     0.239 C 
ATOM     13  O   SER A   1      14.450  13.866  -4.831  1.00  0.00    -0.273 OA
ATOM     14  H   UNL     1      13.877  11.000  -6.215  1.00  0.00     0.164 HD
BRANCH  12  15
ATOM     15  CA  SER A   1      12.663  13.409  -6.385  1.00  0.00     0.167 C 
BRANCH  15  16
ATOM     16  N   SER A   1      12.455  14.858  -6.398  1.00  0.00    -0.318 NA
ATOM     17  H   UNL     1      13.315  15.336  -6.755  1.00  0.00     0.119 HD
ATOM     18  H   UNL     1      12.286  15.189  -5.420  1.00  0.00     0.119 HD
ENDBRANCH  15  16
BRANCH  15  19
ATOM     19  CB  SER A   1      12.690  12.884  -7.839  1.00  0.00     0.184 C 
BRANCH  19  20
ATOM     20  OG  SER A   1      11.438  13.054  -8.445  1.00  0.00    -0.394 OA
ATOM     21  H   UNL     1      10.838  12.363  -8.059  1.00  0.00     0.210 HD
ENDBRANCH  19  20
ENDBRANCH  15  19
ENDBRANCH  12  15
ENDBRANCH  10  11
BRANCH  10  22
ATOM     22  CB  PHE A   2      15.628   9.777  -4.890  1.00  0.00     0.070 C 
BRANCH  22  23
ATOM     23  CG  PHE A   2      14.456   9.289  -4.088  1.00  0.00    -0.045 A 
ATOM     24  CD1 PHE A   2      13.910  10.047  -3.033  1.00  0.00     0.004 A 
ATOM     25  CD2 PHE A   2      13.976   7.991  -4.310  1.00  0.00     0.004 A 
ATOM     26  CE1 PHE A   2      12.872   9.537  -2.263  1.00  0.00     0.000 A 
ATOM     27  CE2 PHE A   2      12.944   7.479  -3.524  1.00  0.00     0.000 A 
ATOM     28  CZ  PHE A   2      12.389   8.254  -2.506  1.00  0.00     0.000 A 
ENDBRANCH  22  23
ENDBRANCH  10  22
ENDBRANCH   7  10
ENDBRANCH   5   6
ENDBRANCH   1   5
BRANCH   3  29
ATOM     29  CA  GLY A   4      21.330   8.752  -8.187  1.00  0.00     0.216 C 
BRANCH  29  30
ATOM     30  C   GLY A   4      22.703   9.204  -8.532  1.00  0.00     0.240 C 
ATOM     31  N   ARG A   5      23.807   8.708  -7.787  1.00  0.00    -0.343 N 
ATOM     32  O   GLY A   4      22.877  10.028  -9.470  1.00  0.00    -0.273 OA
ATOM     33  H   UNL     1      23.643   7.990  -7.044  1.00  0.00     0.164 HD
BRANCH  31  34
ATOM     34  CA  ARG A   5      25.174   9.114  -8.069  1.00  0.00     0.171 C 
BRANCH  34  35
ATOM     35  C   ARG A   5      25.896   7.965  -8.684  1.00  0.00     0.243 C 
ATOM     36  N   ASN A   6      25.915   7.866 -10.102  1.00  0.00    -0.341 N 
ATOM     37  O   ARG A   5      26.447   7.086  -7.969  1.00  0.00    -0.273 OA
ATOM     38  H   UNL     1      25.496   8.652 -10.650  1.00  0.00     0.164 HD
BRANCH  36  39
ATOM     39  CA  ASN A   6      26.543   6.751 -10.803  1.00  0.00     0.201 C 
BRANCH  39  40
ATOM     40  C   ASN A   6      27.993   6.642 -10.416  1.00  0.00     0.326 C 
ATOM     41  O   ASN A   6      28.795   7.579 -10.677  1.00  0.00    -0.250 OA
BRANCH  40  42
ATOM     42  OXT ASN A   6      28.452   5.499  -9.769  1.00  0.00    -0.480 OA
ATOM     43  H   UNL     1      29.425   5.409  -9.501  1.00  0.00     0.296 HD
ENDBRANCH  40  42
ENDBRANCH  39  40
BRANCH  39  44
ATOM     44  CB  ASN A   6      26.424   6.946 -12.323  1.00  0.00     0.136 C 
BRANCH  44  45
ATOM     45  CG  ASN A   6      25.010   7.181 -12.772  1.00  0.00     0.220 C 
ATOM     46  ND2 ASN A   6      24.754   8.089 -13.834  1.00  0.00    -0.370 N 
ATOM     47  OD1 ASN A   6      24.051   6.563 -12.238  1.00  0.00    -0.275 OA
ATOM     48  H   UNL     1      25.534   8.596 -14.309  1.00  0.00     0.159 HD
ATOM     49  H   UNL     1      23.775   8.258 -14.157  1.00  0.00     0.159 HD
ENDBRANCH  44  45
ENDBRANCH  39  44
ENDBRANCH  36  39
ENDBRANCH  34  35
BRANCH  34  50
ATOM     50  CB  ARG A   5      25.852   9.598  -6.792  1.00  0.00     0.037 C 
BRANCH  50  51
ATOM     51  CG  ARG A   5      25.165  10.859  -6.272  1.00  0.00     0.024 C 
BRANCH  51  52
ATOM     52  CD  ARG A   5      25.841  11.389  -5.016  1.00  0.00     0.116 C 
BRANCH  52  53
ATOM     53  NE  ARG A   5      25.378  10.684  -3.823  1.00  0.00    -0.357 N 
ATOM     54  CZ  ARG A   5      25.469  11.279  -2.527  1.00  0.00     0.185 C 
ATOM     55  NH2 ARG A   5      26.107  12.541  -2.350  1.00  0.00    -0.370 N 
ATOM     56  H   UNL     1      24.903   9.758  -3.921  1.00  0.00     0.163 HD
ATOM     57  H   UNL     1      26.084  13.007  -1.415  1.00  0.00     0.159 HD
ATOM     58  H   UNL     1      26.693  12.982  -3.091  1.00  0.00     0.159 HD
BRANCH  54  59
ATOM     59  NH1 ARG A   5      24.959  10.679  -1.499  1.00  0.00    -0.270 NA
ATOM     60  H   UNL     1      24.478   9.755  -1.583  1.00  0.00     0.191 HD
ENDBRANCH  54  59
ENDBRANCH  52  53
ENDBRANCH  51  52
ENDBRANCH  50  51
ENDBRANCH  34  50
ENDBRANCH  31  34
ENDBRANCH  29  30
ENDBRANCH   3  29
TORSDOF 24
