REMARK SMILES CC(C)C[C@H](NC(=O)[C@H](CCCCN)NC(=O)[C@H](Cc1ccccc1)NC(=O)[C@@H](N)CO)C(=O)N[C@@H](CCCNC(=N)N)C(=O)N[C@@H](Cc1c[nH]cn1)C(=O)O
REMARK SMILES IDX 7 1 8 2 6 3 9 5 15 6 16 7 17 8 18 10 26 11 27 12 28 13 29 15
REMARK SMILES IDX 30 16 31 19 32 20 19 22 20 23 21 24 25 25 22 26 24 27 23 28
REMARK SMILES IDX 10 29 11 30 12 31 13 32 14 33 5 36 33 37 35 38 34 39 36 41
REMARK SMILES IDX 44 42 46 43 45 44 47 46 54 47 55 48 56 49 48 51 49 52 53 53
REMARK SMILES IDX 50 54 52 55 51 56 37 58 38 59 39 60 40 61 41 62 43 63 42 67
REMARK SMILES IDX 4 69 2 70 1 71 3 72
REMARK H PARENT 6 4 15 9 26 14 30 17 30 18 32 21 14 34 14 35 35 40 46 45 56 50
REMARK H PARENT 51 57 40 64 43 65 43 66 42 68
ROOT
ATOM      1  C   LYS A   3      20.036  10.081  -6.473  1.00  0.00     0.243 C 
ATOM      2  O   LYS A   3      20.150   9.162  -5.616  1.00  0.00    -0.273 OA
ATOM      3  N   LEU A   4      20.565   9.920  -7.778  1.00  0.00    -0.343 N 
ATOM      4  H   UNL     1      20.406  10.662  -8.498  1.00  0.00     0.164 HD
ENDROOT
BRANCH   1   5
ATOM      5  CA  LYS A   3      19.337  11.356  -6.143  1.00  0.00     0.171 C 
BRANCH   5   6
ATOM      6  N   LYS A   3      18.087  11.051  -5.498  1.00  0.00    -0.343 N 
ATOM      7  C   PHE A   2      16.885  11.751  -5.772  1.00  0.00     0.243 C 
ATOM      8  O   PHE A   2      16.901  12.793  -6.484  1.00  0.00    -0.273 OA
ATOM      9  H   UNL     1      18.162  10.511  -4.610  1.00  0.00     0.164 HD
BRANCH   7  10
ATOM     10  CA  PHE A   2      15.650  11.314  -5.059  1.00  0.00     0.175 C 
BRANCH  10  11
ATOM     11  N   PHE A   2      14.453  11.741  -5.769  1.00  0.00    -0.343 N 
ATOM     12  C   SER A   1      13.915  13.051  -5.637  1.00  0.00     0.239 C 
ATOM     13  O   SER A   1      14.443  13.871  -4.836  1.00  0.00    -0.273 OA
ATOM     14  H   UNL     1      13.864  11.002  -6.209  1.00  0.00     0.164 HD
BRANCH  12  15
ATOM     15  CA  SER A   1      12.661  13.411  -6.389  1.00  0.00     0.167 C 
BRANCH  15  16
ATOM     16  N   SER A   1      12.471  14.863  -6.377  1.00  0.00    -0.318 NA
ATOM     17  H   UNL     1      13.202  15.318  -6.972  1.00  0.00     0.119 HD
ATOM     18  H   UNL     1      11.539  15.087  -6.794  1.00  0.00     0.119 HD
ENDBRANCH  15  16
BRANCH  15  19
ATOM     19  CB  SER A   1      12.687  12.879  -7.844  1.00  0.00     0.184 C 
BRANCH  19  20
ATOM     20  OG  SER A   1      11.436  13.047  -8.452  1.00  0.00    -0.394 OA
ATOM     21  H   UNL     1      10.831  12.368  -8.054  1.00  0.00     0.210 HD
ENDBRANCH  19  20
ENDBRANCH  15  19
ENDBRANCH  12  15
ENDBRANCH  10  11
BRANCH  10  22
ATOM     22  CB  PHE A   2      15.612   9.774  -4.891  1.00  0.00     0.070 C 
BRANCH  22  23
ATOM     23  CG  PHE A   2      14.444   9.289  -4.090  1.00  0.00    -0.045 A 
ATOM     24  CD1 PHE A   2      13.903  10.047  -3.033  1.00  0.00     0.004 A 
ATOM     25  CD2 PHE A   2      13.968   7.990  -4.310  1.00  0.00     0.004 A 
ATOM     26  CE1 PHE A   2      12.869   9.535  -2.260  1.00  0.00     0.000 A 
ATOM     27  CE2 PHE A   2      12.940   7.477  -3.521  1.00  0.00     0.000 A 
ATOM     28  CZ  PHE A   2      12.386   8.252  -2.502  1.00  0.00     0.000 A 
ENDBRANCH  22  23
ENDBRANCH  10  22
ENDBRANCH   7  10
ENDBRANCH   5   6
BRANCH   5  29
ATOM     29  CB  LYS A   3      20.198  12.247  -5.244  1.00  0.00     0.035 C 
BRANCH  29  30
ATOM     30  CG  LYS A   3      20.407  11.710  -3.812  1.00  0.00     0.004 C 
BRANCH  30  31
ATOM     31  CD  LYS A   3      21.790  12.095  -3.282  1.00  0.00     0.015 C 
BRANCH  31  32
ATOM     32  CE  LYS A   3      21.871  11.965  -1.751  1.00  0.00     0.077 C 
BRANCH  32  33
ATOM     33  NZ  LYS A   3      21.649  10.593  -1.291  1.00  0.00    -0.330 NA
ATOM     34  H   UNL     1      22.164   9.927  -1.911  1.00  0.00     0.118 HD
ATOM     35  H   UNL     1      20.630  10.371  -1.365  1.00  0.00     0.118 HD
ENDBRANCH  32  33
ENDBRANCH  31  32
ENDBRANCH  30  31
ENDBRANCH  29  30
ENDBRANCH   5  29
ENDBRANCH   1   5
BRANCH   3  36
ATOM     36  CA  LEU A   4      21.350   8.758  -8.144  1.00  0.00     0.171 C 
BRANCH  36  37
ATOM     37  C   LEU A   4      22.715   9.215  -8.523  1.00  0.00     0.243 C 
ATOM     38  N   ARG A   5      23.823   8.721  -7.784  1.00  0.00    -0.343 N 
ATOM     39  O   LEU A   4      22.879  10.031  -9.470  1.00  0.00    -0.273 OA
ATOM     40  H   UNL     1      23.666   8.032  -7.013  1.00  0.00     0.164 HD
BRANCH  38  41
ATOM     41  CA  ARG A   5      25.186   9.121  -8.071  1.00  0.00     0.171 C 
BRANCH  41  42
ATOM     42  C   ARG A   5      25.899   7.966  -8.686  1.00  0.00     0.243 C 
ATOM     43  N   HIS A   6      25.905   7.866 -10.103  1.00  0.00    -0.341 N 
ATOM     44  O   ARG A   5      26.449   7.085  -7.973  1.00  0.00    -0.273 OA
ATOM     45  H   UNL     1      25.485   8.657 -10.641  1.00  0.00     0.164 HD
BRANCH  43  46
ATOM     46  CA  HIS A   6      26.533   6.762 -10.821  1.00  0.00     0.198 C 
BRANCH  46  47
ATOM     47  C   HIS A   6      27.983   6.644 -10.427  1.00  0.00     0.326 C 
ATOM     48  O   HIS A   6      28.790   7.578 -10.679  1.00  0.00    -0.250 OA
BRANCH  47  49
ATOM     49  OXT HIS A   6      28.432   5.495  -9.783  1.00  0.00    -0.480 OA
ATOM     50  H   UNL     1      29.402   5.398  -9.510  1.00  0.00     0.296 HD
ENDBRANCH  47  49
ENDBRANCH  46  47
BRANCH  46  51
ATOM     51  CB  HIS A   6      26.420   6.992 -12.338  1.00  0.00     0.094 C 
BRANCH  51  52
ATOM     52  CG  HIS A   6      24.993   7.140 -12.786  1.00  0.00     0.061 A 
ATOM     53  ND1 HIS A   6      24.144   6.105 -12.938  1.00  0.00    -0.242 NA
ATOM     54  CD2 HIS A   6      24.357   8.319 -13.112  1.00  0.00     0.107 A 
ATOM     55  CE1 HIS A   6      23.001   6.683 -13.362  1.00  0.00     0.196 A 
ATOM     56  NE2 HIS A   6      23.100   8.021 -13.471  1.00  0.00    -0.351 N 
ATOM     57  H   UNL     1      22.356   8.687 -13.777  1.00  0.00     0.167 HD
ENDBRANCH  51  52
ENDBRANCH  46  51
ENDBRANCH  43  46
ENDBRANCH  41  42
BRANCH  41  58
ATOM     58  CB  ARG A   5      25.863   9.604  -6.794  1.00  0.00     0.037 C 
BRANCH  58  59
ATOM     59  CG  ARG A   5      25.165  10.859  -6.271  1.00  0.00     0.024 C 
BRANCH  59  60
ATOM     60  CD  ARG A   5      25.838  11.393  -5.015  1.00  0.00     0.116 C 
BRANCH  60  61
ATOM     61  NE  ARG A   5      25.381  10.684  -3.823  1.00  0.00    -0.357 N 
ATOM     62  CZ  ARG A   5      25.476  11.276  -2.526  1.00  0.00     0.185 C 
ATOM     63  NH2 ARG A   5      26.098  12.546  -2.351  1.00  0.00    -0.370 N 
ATOM     64  H   UNL     1      24.906   9.757  -3.920  1.00  0.00     0.163 HD
ATOM     65  H   UNL     1      26.671  12.999  -3.095  1.00  0.00     0.159 HD
ATOM     66  H   UNL     1      26.075  13.009  -1.415  1.00  0.00     0.159 HD
BRANCH  62  67
ATOM     67  NH1 ARG A   5      24.992  10.662  -1.495  1.00  0.00    -0.270 NA
ATOM     68  H   UNL     1      24.538   9.726  -1.574  1.00  0.00     0.191 HD
ENDBRANCH  62  67
ENDBRANCH  60  61
ENDBRANCH  59  60
ENDBRANCH  58  59
ENDBRANCH  41  58
ENDBRANCH  38  41
ENDBRANCH  36  37
BRANCH  36  69
ATOM     69  CB  LEU A   4      20.658   7.999  -9.277  1.00  0.00     0.038 C 
BRANCH  69  70
ATOM     70  CG  LEU A   4      21.449   6.769  -9.773  1.00  0.00    -0.015 C 
ATOM     71  CD1 LEU A   4      21.767   5.780  -8.641  1.00  0.00     0.007 C 
ATOM     72  CD2 LEU A   4      20.651   6.062 -10.871  1.00  0.00     0.007 C 
ENDBRANCH  69  70
ENDBRANCH  36  69
ENDBRANCH   3  36
TORSDOF 31
