REMARK SMILES CC(C)C[C@H](NC(=O)CNC(=O)[C@@H](N)CO)C(=O)N[C@@H](CCCCN)C(=O)N[C@@H](CCCNC(=N)N)C(=O)N[C@@H](CC(N)=O)C(=O)O
REMARK SMILES IDX 17 1 18 2 19 3 5 5 6 6 7 7 8 8 9 10 10 11 11 12 12 13 13 15
REMARK SMILES IDX 14 16 15 19 16 20 4 22 2 23 1 24 3 25 20 26 26 27 28 28
REMARK SMILES IDX 27 29 29 31 37 32 39 33 38 34 40 36 45 37 46 38 47 39 41 41
REMARK SMILES IDX 42 42 43 43 44 44 30 47 31 48 32 49 33 50 34 51 36 52 35 56
REMARK SMILES IDX 21 58 22 59 23 60 24 61 25 62
REMARK H PARENT 19 4 6 9 10 14 14 17 14 18 16 21 28 30 39 35 47 40 43 45 43 46
REMARK H PARENT 33 53 36 54 36 55 35 57 25 63 25 64
ROOT
ATOM      1  C   LEU A   3       2.108  -1.558  -2.514  1.00  0.00     0.243 C 
ATOM      2  O   LEU A   3       1.311  -2.198  -3.254  1.00  0.00    -0.273 OA
ATOM      3  N   LYS A   4       1.700  -1.128  -1.207  1.00  0.00    -0.343 N 
ATOM      4  H   UNL     1       2.365  -0.546  -0.647  1.00  0.00     0.164 HD
ENDROOT
BRANCH   1   5
ATOM      5  CA  LEU A   3       3.476  -1.205  -3.034  1.00  0.00     0.171 C 
BRANCH   5   6
ATOM      6  N   LEU A   3       3.678   0.243  -2.903  1.00  0.00    -0.343 N 
ATOM      7  C   GLY A   2       2.948   1.191  -3.696  1.00  0.00     0.240 C 
ATOM      8  O   GLY A   2       2.168   0.798  -4.606  1.00  0.00    -0.273 OA
ATOM      9  H   UNL     1       4.334   0.613  -2.178  1.00  0.00     0.164 HD
BRANCH   7  10
ATOM     10  CA  GLY A   2       3.093   2.657  -3.425  1.00  0.00     0.216 C 
BRANCH  10  11
ATOM     11  N   GLY A   2       2.442   3.015  -2.163  1.00  0.00    -0.346 N 
ATOM     12  C   SER A   1       2.591   4.328  -1.598  1.00  0.00     0.239 C 
ATOM     13  O   SER A   1       3.256   5.199  -2.225  1.00  0.00    -0.273 OA
ATOM     14  H   UNL     1       1.840   2.308  -1.680  1.00  0.00     0.164 HD
BRANCH  12  15
ATOM     15  CA  SER A   1       1.890   4.720  -0.305  1.00  0.00     0.167 C 
BRANCH  15  16
ATOM     16  N   SER A   1       1.715   3.582   0.604  1.00  0.00    -0.318 NA
ATOM     17  H   UNL     1       0.918   2.994   0.273  1.00  0.00     0.119 HD
ATOM     18  H   UNL     1       2.579   2.994   0.612  1.00  0.00     0.119 HD
ENDBRANCH  15  16
BRANCH  15  19
ATOM     19  CB  SER A   1       2.629   5.842   0.445  1.00  0.00     0.184 C 
BRANCH  19  20
ATOM     20  OG  SER A   1       3.892   5.410   0.881  1.00  0.00    -0.394 OA
ATOM     21  H   UNL     1       4.527   5.572   0.135  1.00  0.00     0.210 HD
ENDBRANCH  19  20
ENDBRANCH  15  19
ENDBRANCH  12  15
ENDBRANCH  10  11
ENDBRANCH   7  10
ENDBRANCH   5   6
BRANCH   5  22
ATOM     22  CB  LEU A   3       4.586  -1.969  -2.266  1.00  0.00     0.038 C 
BRANCH  22  23
ATOM     23  CG  LEU A   3       4.810  -3.430  -2.745  1.00  0.00    -0.015 C 
ATOM     24  CD1 LEU A   3       3.757  -4.399  -2.183  1.00  0.00     0.007 C 
ATOM     25  CD2 LEU A   3       6.210  -3.910  -2.334  1.00  0.00     0.007 C 
ENDBRANCH  22  23
ENDBRANCH   5  22
ENDBRANCH   1   5
BRANCH   3  26
ATOM     26  CA  LYS A   4       0.533  -1.686  -0.519  1.00  0.00     0.171 C 
BRANCH  26  27
ATOM     27  C   LYS A   4      -0.250  -0.577   0.139  1.00  0.00     0.243 C 
ATOM     28  N   ARG A   5      -1.685  -0.622   0.166  1.00  0.00    -0.343 N 
ATOM     29  O   LYS A   4       0.361   0.371   0.705  1.00  0.00    -0.273 OA
ATOM     30  H   UNL     1      -2.164  -1.450  -0.251  1.00  0.00     0.164 HD
BRANCH  28  31
ATOM     31  CA  ARG A   5      -2.486   0.458   0.755  1.00  0.00     0.171 C 
BRANCH  31  32
ATOM     32  C   ARG A   5      -2.269   0.488   2.245  1.00  0.00     0.243 C 
ATOM     33  N   ASN A   6      -1.680   1.640   2.869  1.00  0.00    -0.341 N 
ATOM     34  O   ARG A   5      -2.596  -0.512   2.941  1.00  0.00    -0.273 OA
ATOM     35  H   UNL     1      -1.392   2.444   2.268  1.00  0.00     0.164 HD
BRANCH  33  36
ATOM     36  CA  ASN A   6      -1.472   1.716   4.319  1.00  0.00     0.201 C 
BRANCH  36  37
ATOM     37  C   ASN A   6      -2.793   1.906   5.015  1.00  0.00     0.326 C 
ATOM     38  O   ASN A   6      -3.666   2.675   4.531  1.00  0.00    -0.250 OA
BRANCH  37  39
ATOM     39  OXT ASN A   6      -3.031   1.262   6.227  1.00  0.00    -0.480 OA
ATOM     40  H   UNL     1      -3.912   1.377   6.714  1.00  0.00     0.296 HD
ENDBRANCH  37  39
ENDBRANCH  36  37
BRANCH  36  41
ATOM     41  CB  ASN A   6      -0.505   2.864   4.665  1.00  0.00     0.136 C 
BRANCH  41  42
ATOM     42  CG  ASN A   6      -0.118   2.843   6.116  1.00  0.00     0.220 C 
ATOM     43  ND2 ASN A   6       0.854   1.913   6.592  1.00  0.00    -0.370 N 
ATOM     44  OD1 ASN A   6      -0.680   3.628   6.925  1.00  0.00    -0.275 OA
ATOM     45  H   UNL     1       1.105   1.878   7.604  1.00  0.00     0.159 HD
ATOM     46  H   UNL     1       1.314   1.240   5.940  1.00  0.00     0.159 HD
ENDBRANCH  41  42
ENDBRANCH  36  41
ENDBRANCH  33  36
ENDBRANCH  31  32
BRANCH  31  47
ATOM     47  CB  ARG A   5      -3.988   0.272   0.453  1.00  0.00     0.037 C 
BRANCH  47  48
ATOM     48  CG  ARG A   5      -4.304   0.426  -1.045  1.00  0.00     0.024 C 
BRANCH  48  49
ATOM     49  CD  ARG A   5      -5.800   0.242  -1.329  1.00  0.00     0.116 C 
BRANCH  49  50
ATOM     50  NE  ARG A   5      -6.585   1.389  -0.868  1.00  0.00    -0.357 N 
ATOM     51  CZ  ARG A   5      -8.017   1.466  -0.996  1.00  0.00     0.185 C 
ATOM     52  NH2 ARG A   5      -8.699   2.636  -0.539  1.00  0.00    -0.370 N 
ATOM     53  H   UNL     1      -6.094   2.208  -0.441  1.00  0.00     0.163 HD
ATOM     54  H   UNL     1      -8.166   3.436  -0.132  1.00  0.00     0.159 HD
ATOM     55  H   UNL     1      -9.737   2.712  -0.621  1.00  0.00     0.159 HD
BRANCH  51  56
ATOM     56  NH1 ARG A   5      -8.706   0.500  -1.521  1.00  0.00    -0.270 NA
ATOM     57  H   UNL     1      -8.285  -0.385  -1.878  1.00  0.00     0.191 HD
ENDBRANCH  51  56
ENDBRANCH  49  50
ENDBRANCH  48  49
ENDBRANCH  47  48
ENDBRANCH  31  47
ENDBRANCH  28  31
ENDBRANCH  26  27
BRANCH  26  58
ATOM     58  CB  LYS A   4       1.010  -2.717   0.519  1.00  0.00     0.035 C 
BRANCH  58  59
ATOM     59  CG  LYS A   4      -0.118  -3.549   1.160  1.00  0.00     0.004 C 
BRANCH  59  60
ATOM     60  CD  LYS A   4      -0.920  -4.435   0.185  1.00  0.00     0.015 C 
BRANCH  60  61
ATOM     61  CE  LYS A   4      -0.071  -5.366  -0.706  1.00  0.00     0.077 C 
BRANCH  61  62
ATOM     62  NZ  LYS A   4       0.760  -6.291   0.067  1.00  0.00    -0.330 NA
ATOM     63  H   UNL     1       0.172  -6.757   0.795  1.00  0.00     0.118 HD
ATOM     64  H   UNL     1       1.513  -5.753   0.552  1.00  0.00     0.118 HD
ENDBRANCH  61  62
ENDBRANCH  60  61
ENDBRANCH  59  60
ENDBRANCH  58  59
ENDBRANCH  26  58
ENDBRANCH   3  26
TORSDOF 29
