REMARK SMILES CC[C@H](C)[C@H](NC(=O)[C@H](CC(C)C)NC(=O)[C@H](CCCNC(=N)N)NC(=O)[C@@H](N)CO)C(=O)N[C@@H](CCCNC(=N)N)C(=O)N[C@@H](CC(N)=O)C(=O)O
REMARK SMILES IDX 7 1 8 2 6 3 9 5 14 6 15 7 16 8 17 10 25 11 26 12 27 13 28 15
REMARK SMILES IDX 29 16 30 19 31 20 18 22 19 23 20 24 21 25 22 26 24 27 23 31
REMARK SMILES IDX 10 33 11 34 12 35 13 36 5 37 32 38 34 39 33 40 35 42 43 43
REMARK SMILES IDX 45 44 44 45 46 47 51 48 52 49 53 50 47 52 48 53 49 54 50 55
REMARK SMILES IDX 36 58 37 59 38 60 39 61 40 62 42 63 41 67 3 69 4 70 2 71
REMARK SMILES IDX 1 72
REMARK H PARENT 6 4 14 9 25 14 29 17 29 18 31 21 21 28 24 29 24 30 23 32 34 41
REMARK H PARENT 45 46 53 51 49 56 49 57 39 64 42 65 42 66 41 68
ROOT
ATOM      1  C   LEU A   3      20.043  10.085  -6.472  1.00  0.00     0.243 C 
ATOM      2  O   LEU A   3      20.153   9.154  -5.627  1.00  0.00    -0.273 OA
ATOM      3  N   ILE A   4      20.578   9.941  -7.775  1.00  0.00    -0.342 N 
ATOM      4  H   UNL     1      20.497  10.739  -8.446  1.00  0.00     0.164 HD
ENDROOT
BRANCH   1   5
ATOM      5  CA  LEU A   3      19.326  11.351  -6.135  1.00  0.00     0.171 C 
BRANCH   5   6
ATOM      6  N   LEU A   3      18.073  11.016  -5.512  1.00  0.00    -0.343 N 
ATOM      7  C   ARG A   2      16.873  11.739  -5.742  1.00  0.00     0.243 C 
ATOM      8  O   ARG A   2      16.890  12.787  -6.448  1.00  0.00    -0.273 OA
ATOM      9  H   UNL     1      18.147  10.388  -4.687  1.00  0.00     0.164 HD
BRANCH   7  10
ATOM     10  CA  ARG A   2      15.622  11.282  -5.043  1.00  0.00     0.171 C 
BRANCH  10  11
ATOM     11  N   ARG A   2      14.446  11.734  -5.771  1.00  0.00    -0.343 N 
ATOM     12  C   SER A   1      13.913  13.046  -5.637  1.00  0.00     0.239 C 
ATOM     13  O   SER A   1      14.450  13.862  -4.837  1.00  0.00    -0.273 OA
ATOM     14  H   UNL     1      13.887  11.014  -6.277  1.00  0.00     0.164 HD
BRANCH  12  15
ATOM     15  CA  SER A   1      12.655  13.411  -6.386  1.00  0.00     0.167 C 
BRANCH  15  16
ATOM     16  N   SER A   1      12.468  14.863  -6.378  1.00  0.00    -0.318 NA
ATOM     17  H   UNL     1      11.582  15.091  -6.886  1.00  0.00     0.119 HD
ATOM     18  H   UNL     1      12.305  15.171  -5.391  1.00  0.00     0.119 HD
ENDBRANCH  15  16
BRANCH  15  19
ATOM     19  CB  SER A   1      12.693  12.903  -7.849  1.00  0.00     0.184 C 
BRANCH  19  20
ATOM     20  OG  SER A   1      11.436  13.042  -8.450  1.00  0.00    -0.394 OA
ATOM     21  H   UNL     1      10.856  12.333  -8.067  1.00  0.00     0.210 HD
ENDBRANCH  19  20
ENDBRANCH  15  19
ENDBRANCH  12  15
ENDBRANCH  10  11
BRANCH  10  22
ATOM     22  CB  ARG A   2      15.570   9.736  -4.923  1.00  0.00     0.037 C 
BRANCH  22  23
ATOM     23  CG  ARG A   2      14.392   9.267  -4.066  1.00  0.00     0.024 C 
BRANCH  23  24
ATOM     24  CD  ARG A   2      14.338   7.737  -3.943  1.00  0.00     0.116 C 
BRANCH  24  25
ATOM     25  NE  ARG A   2      15.406   7.223  -3.082  1.00  0.00    -0.357 N 
ATOM     26  CZ  ARG A   2      15.601   5.818  -2.871  1.00  0.00     0.185 C 
ATOM     27  NH2 ARG A   2      16.660   5.370  -2.022  1.00  0.00    -0.370 N 
ATOM     28  H   UNL     1      16.042   7.888  -2.585  1.00  0.00     0.163 HD
ATOM     29  H   UNL     1      17.292   6.058  -1.556  1.00  0.00     0.159 HD
ATOM     30  H   UNL     1      16.819   4.351  -1.855  1.00  0.00     0.159 HD
BRANCH  26  31
ATOM     31  NH1 ARG A   2      14.822   4.957  -3.448  1.00  0.00    -0.270 NA
ATOM     32  H   UNL     1      14.943   3.929  -3.311  1.00  0.00     0.191 HD
ENDBRANCH  26  31
ENDBRANCH  24  25
ENDBRANCH  23  24
ENDBRANCH  22  23
ENDBRANCH  10  22
ENDBRANCH   7  10
ENDBRANCH   5   6
BRANCH   5  33
ATOM     33  CB  LEU A   3      20.158  12.252  -5.213  1.00  0.00     0.038 C 
BRANCH  33  34
ATOM     34  CG  LEU A   3      20.416  11.680  -3.789  1.00  0.00    -0.015 C 
ATOM     35  CD1 LEU A   3      21.820  12.066  -3.319  1.00  0.00     0.007 C 
ATOM     36  CD2 LEU A   3      19.372  12.171  -2.776  1.00  0.00     0.007 C 
ENDBRANCH  33  34
ENDBRANCH   5  33
ENDBRANCH   1   5
BRANCH   3  37
ATOM     37  CA  ILE A   4      21.345   8.773  -8.167  1.00  0.00     0.174 C 
BRANCH  37  38
ATOM     38  C   ILE A   4      22.718   9.217  -8.535  1.00  0.00     0.243 C 
ATOM     39  N   ARG A   5      23.820   8.719  -7.790  1.00  0.00    -0.343 N 
ATOM     40  O   ILE A   4      22.895  10.046  -9.468  1.00  0.00    -0.273 OA
ATOM     41  H   UNL     1      23.659   8.030  -7.021  1.00  0.00     0.164 HD
BRANCH  39  42
ATOM     42  CA  ARG A   5      25.186   9.120  -8.071  1.00  0.00     0.171 C 
BRANCH  42  43
ATOM     43  C   ARG A   5      25.900   7.967  -8.685  1.00  0.00     0.243 C 
ATOM     44  N   ASN A   6      25.913   7.864 -10.102  1.00  0.00    -0.341 N 
ATOM     45  O   ARG A   5      26.448   7.086  -7.969  1.00  0.00    -0.273 OA
ATOM     46  H   UNL     1      25.488   8.647 -10.650  1.00  0.00     0.164 HD
BRANCH  44  47
ATOM     47  CA  ASN A   6      26.542   6.750 -10.804  1.00  0.00     0.201 C 
BRANCH  47  48
ATOM     48  C   ASN A   6      27.993   6.642 -10.416  1.00  0.00     0.326 C 
ATOM     49  O   ASN A   6      28.794   7.579 -10.677  1.00  0.00    -0.250 OA
BRANCH  48  50
ATOM     50  OXT ASN A   6      28.452   5.499  -9.769  1.00  0.00    -0.480 OA
ATOM     51  H   UNL     1      29.424   5.409  -9.500  1.00  0.00     0.296 HD
ENDBRANCH  48  50
ENDBRANCH  47  48
BRANCH  47  52
ATOM     52  CB  ASN A   6      26.424   6.947 -12.323  1.00  0.00     0.136 C 
BRANCH  52  53
ATOM     53  CG  ASN A   6      25.010   7.181 -12.773  1.00  0.00     0.220 C 
ATOM     54  ND2 ASN A   6      24.754   8.091 -13.833  1.00  0.00    -0.370 N 
ATOM     55  OD1 ASN A   6      24.053   6.558 -12.243  1.00  0.00    -0.275 OA
ATOM     56  H   UNL     1      23.775   8.259 -14.156  1.00  0.00     0.159 HD
ATOM     57  H   UNL     1      25.533   8.600 -14.306  1.00  0.00     0.159 HD
ENDBRANCH  52  53
ENDBRANCH  47  52
ENDBRANCH  44  47
ENDBRANCH  42  43
BRANCH  42  58
ATOM     58  CB  ARG A   5      25.861   9.602  -6.792  1.00  0.00     0.037 C 
BRANCH  58  59
ATOM     59  CG  ARG A   5      25.165  10.858  -6.269  1.00  0.00     0.024 C 
BRANCH  59  60
ATOM     60  CD  ARG A   5      25.839  11.391  -5.013  1.00  0.00     0.116 C 
BRANCH  60  61
ATOM     61  NE  ARG A   5      25.378  10.686  -3.820  1.00  0.00    -0.357 N 
ATOM     62  CZ  ARG A   5      25.469  11.281  -2.526  1.00  0.00     0.185 C 
ATOM     63  NH2 ARG A   5      26.107  12.546  -2.351  1.00  0.00    -0.370 N 
ATOM     64  H   UNL     1      24.894   9.763  -3.911  1.00  0.00     0.163 HD
ATOM     65  H   UNL     1      26.080  13.024  -1.423  1.00  0.00     0.159 HD
ATOM     66  H   UNL     1      26.697  12.982  -3.093  1.00  0.00     0.159 HD
BRANCH  62  67
ATOM     67  NH1 ARG A   5      24.954  10.672  -1.507  1.00  0.00    -0.270 NA
ATOM     68  H   UNL     1      24.995  11.077  -0.545  1.00  0.00     0.191 HD
ENDBRANCH  62  67
ENDBRANCH  60  61
ENDBRANCH  59  60
ENDBRANCH  58  59
ENDBRANCH  42  58
ENDBRANCH  39  42
ENDBRANCH  37  38
BRANCH  37  69
ATOM     69  CB  ILE A   4      20.628   7.977  -9.284  1.00  0.00     0.018 C 
ATOM     70  CG1 ILE A   4      20.218   8.831 -10.499  1.00  0.00     0.010 C 
BRANCH  69  71
ATOM     71  CG2 ILE A   4      21.454   6.763  -9.763  1.00  0.00     0.002 C 
ATOM     72  CD1 ILE A   4      21.770   5.775  -8.641  1.00  0.00     0.004 C 
ENDBRANCH  69  71
ENDBRANCH  37  69
ENDBRANCH   3  37
TORSDOF 31
