REMARK SMILES N=C(N)NCCC[C@H](NC(=O)CNC(=O)[C@H](CCCNC(=N)N)NC(=O)[C@H](Cc1ccccc1)NC(=O)[C@@H](N)CO)C(=O)N[C@@H](CC(N)=O)C(=O)O
REMARK SMILES IDX 14 1 15 2 13 3 16 5 24 6 25 7 26 8 27 10 35 11 36 12 37 13
REMARK SMILES IDX 38 15 39 16 40 19 41 20 28 22 29 23 30 24 34 25 31 26 33 27
REMARK SMILES IDX 32 28 17 29 18 30 19 31 20 32 21 33 23 34 22 38 12 40 10 41
REMARK SMILES IDX 9 42 11 43 8 45 42 46 44 47 43 48 45 50 50 51 51 52 52 53
REMARK SMILES IDX 46 55 47 56 48 57 49 58 7 61 6 62 5 63 4 64 2 65 3 66 1 70
REMARK H PARENT 13 4 24 9 35 14 39 17 39 18 41 21 20 35 23 36 23 37 22 39 9 44
REMARK H PARENT 44 49 52 54 48 59 48 60 4 67 3 68 3 69 1 71
ROOT
ATOM      1  C   ARG A   3      20.045  10.074  -6.480  1.00  0.00     0.243 C 
ATOM      2  O   ARG A   3      20.170   9.154  -5.625  1.00  0.00    -0.273 OA
ATOM      3  N   GLY A   4      20.557   9.911  -7.793  1.00  0.00    -0.345 N 
ATOM      4  H   UNL     1      20.394  10.660  -8.504  1.00  0.00     0.164 HD
ENDROOT
BRANCH   1   5
ATOM      5  CA  ARG A   3      19.341  11.350  -6.144  1.00  0.00     0.171 C 
BRANCH   5   6
ATOM      6  N   ARG A   3      18.089  11.044  -5.502  1.00  0.00    -0.343 N 
ATOM      7  C   PHE A   2      16.888  11.748  -5.773  1.00  0.00     0.243 C 
ATOM      8  O   PHE A   2      16.904  12.791  -6.483  1.00  0.00    -0.273 OA
ATOM      9  H   UNL     1      18.165  10.500  -4.617  1.00  0.00     0.164 HD
BRANCH   7  10
ATOM     10  CA  PHE A   2      15.651  11.313  -5.060  1.00  0.00     0.175 C 
BRANCH  10  11
ATOM     11  N   PHE A   2      14.453  11.740  -5.769  1.00  0.00    -0.343 N 
ATOM     12  C   SER A   1      13.915  13.051  -5.636  1.00  0.00     0.239 C 
ATOM     13  O   SER A   1      14.449  13.870  -4.839  1.00  0.00    -0.273 OA
ATOM     14  H   UNL     1      13.862  11.001  -6.208  1.00  0.00     0.164 HD
BRANCH  12  15
ATOM     15  CA  SER A   1      12.655  13.410  -6.383  1.00  0.00     0.167 C 
BRANCH  15  16
ATOM     16  N   SER A   1      12.467  14.863  -6.382  1.00  0.00    -0.318 NA
ATOM     17  H   UNL     1      11.581  15.087  -6.890  1.00  0.00     0.119 HD
ATOM     18  H   UNL     1      12.304  15.174  -5.396  1.00  0.00     0.119 HD
ENDBRANCH  15  16
BRANCH  15  19
ATOM     19  CB  SER A   1      12.695  12.894  -7.842  1.00  0.00     0.184 C 
BRANCH  19  20
ATOM     20  OG  SER A   1      11.440  13.037  -8.449  1.00  0.00    -0.394 OA
ATOM     21  H   UNL     1      10.855  12.333  -8.065  1.00  0.00     0.210 HD
ENDBRANCH  19  20
ENDBRANCH  15  19
ENDBRANCH  12  15
ENDBRANCH  10  11
BRANCH  10  22
ATOM     22  CB  PHE A   2      15.612   9.773  -4.891  1.00  0.00     0.070 C 
BRANCH  22  23
ATOM     23  CG  PHE A   2      14.443   9.289  -4.090  1.00  0.00    -0.045 A 
ATOM     24  CD1 PHE A   2      13.903  10.047  -3.033  1.00  0.00     0.004 A 
ATOM     25  CD2 PHE A   2      13.968   7.989  -4.310  1.00  0.00     0.004 A 
ATOM     26  CE1 PHE A   2      12.869   9.536  -2.260  1.00  0.00     0.000 A 
ATOM     27  CE2 PHE A   2      12.939   7.477  -3.521  1.00  0.00     0.000 A 
ATOM     28  CZ  PHE A   2      12.386   8.252  -2.502  1.00  0.00     0.000 A 
ENDBRANCH  22  23
ENDBRANCH  10  22
ENDBRANCH   7  10
ENDBRANCH   5   6
BRANCH   5  29
ATOM     29  CB  ARG A   3      20.196  12.246  -5.242  1.00  0.00     0.037 C 
BRANCH  29  30
ATOM     30  CG  ARG A   3      20.412  11.705  -3.812  1.00  0.00     0.024 C 
BRANCH  30  31
ATOM     31  CD  ARG A   3      21.801  12.073  -3.298  1.00  0.00     0.116 C 
BRANCH  31  32
ATOM     32  NE  ARG A   3      21.909  11.741  -1.878  1.00  0.00    -0.357 N 
ATOM     33  CZ  ARG A   3      21.469  12.588  -0.800  1.00  0.00     0.185 C 
ATOM     34  NH2 ARG A   3      21.715  12.187   0.547  1.00  0.00    -0.370 N 
ATOM     35  H   UNL     1      22.307  10.808  -1.634  1.00  0.00     0.163 HD
ATOM     36  H   UNL     1      21.400  12.783   1.345  1.00  0.00     0.159 HD
ATOM     37  H   UNL     1      22.217  11.295   0.752  1.00  0.00     0.159 HD
BRANCH  33  38
ATOM     38  NH1 ARG A   3      20.846  13.705  -1.020  1.00  0.00    -0.270 NA
ATOM     39  H   UNL     1      20.618  14.067  -1.970  1.00  0.00     0.191 HD
ENDBRANCH  33  38
ENDBRANCH  31  32
ENDBRANCH  30  31
ENDBRANCH  29  30
ENDBRANCH   5  29
ENDBRANCH   1   5
BRANCH   3  40
ATOM     40  CA  GLY A   4      21.332   8.756  -8.197  1.00  0.00     0.216 C 
BRANCH  40  41
ATOM     41  C   GLY A   4      22.705   9.205  -8.537  1.00  0.00     0.240 C 
ATOM     42  N   ARG A   5      23.806   8.709  -7.788  1.00  0.00    -0.343 N 
ATOM     43  O   GLY A   4      22.882  10.030  -9.473  1.00  0.00    -0.273 OA
ATOM     44  H   UNL     1      23.641   7.992  -7.044  1.00  0.00     0.164 HD
BRANCH  42  45
ATOM     45  CA  ARG A   5      25.174   9.114  -8.068  1.00  0.00     0.171 C 
BRANCH  45  46
ATOM     46  C   ARG A   5      25.896   7.965  -8.684  1.00  0.00     0.243 C 
ATOM     47  N   ASN A   6      25.915   7.866 -10.101  1.00  0.00    -0.341 N 
ATOM     48  O   ARG A   5      26.447   7.086  -7.969  1.00  0.00    -0.273 OA
ATOM     49  H   UNL     1      25.496   8.652 -10.649  1.00  0.00     0.164 HD
BRANCH  47  50
ATOM     50  CA  ASN A   6      26.543   6.752 -10.803  1.00  0.00     0.201 C 
BRANCH  50  51
ATOM     51  C   ASN A   6      27.993   6.642 -10.416  1.00  0.00     0.326 C 
ATOM     52  O   ASN A   6      28.795   7.579 -10.677  1.00  0.00    -0.250 OA
BRANCH  51  53
ATOM     53  OXT ASN A   6      28.452   5.499  -9.769  1.00  0.00    -0.480 OA
ATOM     54  H   UNL     1      29.425   5.409  -9.501  1.00  0.00     0.296 HD
ENDBRANCH  51  53
ENDBRANCH  50  51
BRANCH  50  55
ATOM     55  CB  ASN A   6      26.424   6.947 -12.323  1.00  0.00     0.136 C 
BRANCH  55  56
ATOM     56  CG  ASN A   6      25.010   7.182 -12.772  1.00  0.00     0.220 C 
ATOM     57  ND2 ASN A   6      24.754   8.089 -13.834  1.00  0.00    -0.370 N 
ATOM     58  OD1 ASN A   6      24.051   6.563 -12.238  1.00  0.00    -0.275 OA
ATOM     59  H   UNL     1      25.534   8.596 -14.309  1.00  0.00     0.159 HD
ATOM     60  H   UNL     1      23.775   8.257 -14.157  1.00  0.00     0.159 HD
ENDBRANCH  55  56
ENDBRANCH  50  55
ENDBRANCH  47  50
ENDBRANCH  45  46
BRANCH  45  61
ATOM     61  CB  ARG A   5      25.851   9.598  -6.791  1.00  0.00     0.037 C 
BRANCH  61  62
ATOM     62  CG  ARG A   5      25.161  10.859  -6.271  1.00  0.00     0.024 C 
BRANCH  62  63
ATOM     63  CD  ARG A   5      25.837  11.391  -5.015  1.00  0.00     0.116 C 
BRANCH  63  64
ATOM     64  NE  ARG A   5      25.379  10.684  -3.822  1.00  0.00    -0.357 N 
ATOM     65  CZ  ARG A   5      25.473  11.279  -2.526  1.00  0.00     0.185 C 
ATOM     66  NH2 ARG A   5      26.101  12.546  -2.351  1.00  0.00    -0.370 N 
ATOM     67  H   UNL     1      24.902   9.759  -3.919  1.00  0.00     0.163 HD
ATOM     68  H   UNL     1      26.678  12.994  -3.095  1.00  0.00     0.159 HD
ATOM     69  H   UNL     1      26.078  13.010  -1.416  1.00  0.00     0.159 HD
BRANCH  65  70
ATOM     70  NH1 ARG A   5      24.981  10.670  -1.495  1.00  0.00    -0.270 NA
ATOM     71  H   UNL     1      24.518   9.738  -1.575  1.00  0.00     0.191 HD
ENDBRANCH  65  70
ENDBRANCH  63  64
ENDBRANCH  62  63
ENDBRANCH  61  62
ENDBRANCH  45  61
ENDBRANCH  42  45
ENDBRANCH  40  41
ENDBRANCH   3  40
TORSDOF 29
