REMARK SMILES N=C(N)NCCC[C@H](NC(=O)[C@@H]1CCCN1C(=O)[C@H](CC(N)=O)NC(=O)[C@H](Cc1ccccc1)NC(=O)[C@@H](N)CO)C(=O)N[C@@H](CC(N)=O)C(=O)O
REMARK SMILES IDX 16 1 12 2 13 3 14 4 15 5 17 6 18 7 19 8 24 9 25 10 26 11
REMARK SMILES IDX 27 13 35 14 36 15 37 16 38 18 39 19 40 22 41 23 28 25 29 26
REMARK SMILES IDX 30 27 34 28 31 29 33 30 32 31 20 32 21 33 22 34 23 35 10 38
REMARK SMILES IDX 9 39 11 40 8 42 42 43 44 44 43 45 45 47 50 48 51 49 52 50
REMARK SMILES IDX 46 52 47 53 48 54 49 55 7 58 6 59 5 60 4 61 2 62 3 63 1 67
REMARK H PARENT 24 12 35 17 39 20 39 21 41 24 22 36 22 37 9 41 44 46 52 51
REMARK H PARENT 48 56 48 57 4 64 3 65 3 66 1 68
ROOT
ATOM      1  N   PRO A   4      20.645   9.889  -7.779  1.00  0.00    -0.329 N 
ATOM      2  CA  PRO A   4      21.713  10.738  -8.298  1.00  0.00     0.174 C 
ATOM      3  CB  PRO A   4      22.343   9.961  -9.458  1.00  0.00     0.037 C 
ATOM      4  CG  PRO A   4      21.846   8.526  -9.317  1.00  0.00     0.024 C 
ATOM      5  CD  PRO A   4      20.602   8.595  -8.444  1.00  0.00     0.120 C 
ENDROOT
BRANCH   1   6
ATOM      6  C   ASN A   3      20.078  10.076  -6.481  1.00  0.00     0.246 C 
ATOM      7  O   ASN A   3      20.169   9.158  -5.620  1.00  0.00    -0.272 OA
BRANCH   6   8
ATOM      8  CA  ASN A   3      19.357  11.350  -6.151  1.00  0.00     0.180 C 
BRANCH   8   9
ATOM      9  N   ASN A   3      18.097  11.024  -5.528  1.00  0.00    -0.342 N 
ATOM     10  C   PHE A   2      16.897  11.743  -5.775  1.00  0.00     0.243 C 
ATOM     11  O   PHE A   2      16.914  12.792  -6.473  1.00  0.00    -0.273 OA
ATOM     12  H   UNL     1      18.175  10.449  -4.665  1.00  0.00     0.164 HD
BRANCH  10  13
ATOM     13  CA  PHE A   2      15.659  11.311  -5.058  1.00  0.00     0.175 C 
BRANCH  13  14
ATOM     14  N   PHE A   2      14.463  11.740  -5.769  1.00  0.00    -0.343 N 
ATOM     15  C   SER A   1      13.922  13.049  -5.634  1.00  0.00     0.239 C 
ATOM     16  O   SER A   1      14.449  13.865  -4.830  1.00  0.00    -0.273 OA
ATOM     17  H   UNL     1      13.880  11.001  -6.219  1.00  0.00     0.164 HD
BRANCH  15  18
ATOM     18  CA  SER A   1      12.664  13.410  -6.385  1.00  0.00     0.167 C 
BRANCH  18  19
ATOM     19  N   SER A   1      12.459  14.859  -6.404  1.00  0.00    -0.318 NA
ATOM     20  H   UNL     1      13.310  15.329  -6.792  1.00  0.00     0.119 HD
ATOM     21  H   UNL     1      12.318  15.201  -5.425  1.00  0.00     0.119 HD
ENDBRANCH  18  19
BRANCH  18  22
ATOM     22  CB  SER A   1      12.687  12.877  -7.837  1.00  0.00     0.184 C 
BRANCH  22  23
ATOM     23  OG  SER A   1      11.439  13.058  -8.446  1.00  0.00    -0.394 OA
ATOM     24  H   UNL     1      10.828  12.379  -8.055  1.00  0.00     0.210 HD
ENDBRANCH  22  23
ENDBRANCH  18  22
ENDBRANCH  15  18
ENDBRANCH  13  14
BRANCH  13  25
ATOM     25  CB  PHE A   2      15.616   9.772  -4.886  1.00  0.00     0.070 C 
BRANCH  25  26
ATOM     26  CG  PHE A   2      14.442   9.291  -4.090  1.00  0.00    -0.045 A 
ATOM     27  CD1 PHE A   2      13.902  10.048  -3.033  1.00  0.00     0.004 A 
ATOM     28  CD2 PHE A   2      13.968   7.990  -4.310  1.00  0.00     0.004 A 
ATOM     29  CE1 PHE A   2      12.869   9.537  -2.260  1.00  0.00     0.000 A 
ATOM     30  CE2 PHE A   2      12.939   7.478  -3.520  1.00  0.00     0.000 A 
ATOM     31  CZ  PHE A   2      12.386   8.253  -2.501  1.00  0.00     0.000 A 
ENDBRANCH  25  26
ENDBRANCH  13  25
ENDBRANCH  10  13
ENDBRANCH   8   9
BRANCH   8  32
ATOM     32  CB  ASN A   3      20.176  12.256  -5.217  1.00  0.00     0.134 C 
BRANCH  32  33
ATOM     33  CG  ASN A   3      20.407  11.672  -3.845  1.00  0.00     0.220 C 
ATOM     34  ND2 ASN A   3      19.477  11.912  -2.788  1.00  0.00    -0.370 N 
ATOM     35  OD1 ASN A   3      21.423  10.958  -3.631  1.00  0.00    -0.275 OA
ATOM     36  H   UNL     1      19.636  11.498  -1.843  1.00  0.00     0.159 HD
ATOM     37  H   UNL     1      18.623  12.492  -2.950  1.00  0.00     0.159 HD
ENDBRANCH  32  33
ENDBRANCH   8  32
ENDBRANCH   6   8
ENDBRANCH   1   6
BRANCH   2  38
ATOM     38  C   PRO A   4      21.194  12.074  -8.762  1.00  0.00     0.243 C 
ATOM     39  N   ARG A   5      20.079  12.151  -9.665  1.00  0.00    -0.343 N 
ATOM     40  O   PRO A   4      21.771  13.125  -8.372  1.00  0.00    -0.273 OA
ATOM     41  H   UNL     1      19.562  11.272  -9.897  1.00  0.00     0.164 HD
BRANCH  39  42
ATOM     42  CA  ARG A   5      19.605  13.415 -10.238  1.00  0.00     0.171 C 
BRANCH  42  43
ATOM     43  C   ARG A   5      18.309  13.817  -9.587  1.00  0.00     0.243 C 
ATOM     44  N   ASN A   6      18.131  15.158  -9.105  1.00  0.00    -0.341 N 
ATOM     45  O   ARG A   5      17.366  12.983  -9.504  1.00  0.00    -0.273 OA
ATOM     46  H   UNL     1      18.923  15.833  -9.203  1.00  0.00     0.164 HD
BRANCH  44  47
ATOM     47  CA  ASN A   6      16.846  15.645  -8.593  1.00  0.00     0.201 C 
BRANCH  47  48
ATOM     48  C   ASN A   6      15.925  15.948  -9.742  1.00  0.00     0.326 C 
ATOM     49  O   ASN A   6      16.335  16.623 -10.725  1.00  0.00    -0.250 OA
BRANCH  48  50
ATOM     50  OXT ASN A   6      14.605  15.511  -9.703  1.00  0.00    -0.480 OA
ATOM     51  H   UNL     1      13.967  15.717 -10.462  1.00  0.00     0.296 HD
ENDBRANCH  48  50
ENDBRANCH  47  48
BRANCH  47  52
ATOM     52  CB  ASN A   6      17.065  16.894  -7.720  1.00  0.00     0.136 C 
BRANCH  52  53
ATOM     53  CG  ASN A   6      15.821  17.268  -6.968  1.00  0.00     0.220 C 
ATOM     54  ND2 ASN A   6      15.565  16.714  -5.678  1.00  0.00    -0.370 N 
ATOM     55  OD1 ASN A   6      14.982  18.050  -7.490  1.00  0.00    -0.275 OA
ATOM     56  H   UNL     1      16.238  16.045  -5.243  1.00  0.00     0.159 HD
ATOM     57  H   UNL     1      14.695  16.967  -5.159  1.00  0.00     0.159 HD
ENDBRANCH  52  53
ENDBRANCH  47  52
ENDBRANCH  44  47
ENDBRANCH  42  43
BRANCH  42  58
ATOM     58  CB  ARG A   5      19.412  13.277 -11.758  1.00  0.00     0.037 C 
BRANCH  58  59
ATOM     59  CG  ARG A   5      20.743  13.013 -12.476  1.00  0.00     0.024 C 
BRANCH  59  60
ATOM     60  CD  ARG A   5      20.547  12.939 -13.994  1.00  0.00     0.116 C 
BRANCH  60  61
ATOM     61  NE  ARG A   5      21.822  12.697 -14.672  1.00  0.00    -0.357 N 
ATOM     62  CZ  ARG A   5      21.951  12.608 -16.102  1.00  0.00     0.185 C 
ATOM     63  NH2 ARG A   5      23.242  12.403 -16.676  1.00  0.00    -0.370 N 
ATOM     64  H   UNL     1      22.691  12.593 -14.100  1.00  0.00     0.163 HD
ATOM     65  H   UNL     1      23.358  12.339 -17.712  1.00  0.00     0.159 HD
ATOM     66  H   UNL     1      24.087  12.317 -16.069  1.00  0.00     0.159 HD
BRANCH  62  67
ATOM     67  NH1 ARG A   5      20.922  12.709 -16.885  1.00  0.00    -0.270 NA
ATOM     68  H   UNL     1      19.948  12.858 -16.541  1.00  0.00     0.191 HD
ENDBRANCH  62  67
ENDBRANCH  60  61
ENDBRANCH  59  60
ENDBRANCH  58  59
ENDBRANCH  42  58
ENDBRANCH  39  42
ENDBRANCH   2  38
TORSDOF 26
