REMARK SMILES N=C(N)NCCC[C@H](NC(=O)[C@@H]1CCCN1C(=O)[C@H](CCCCN)NC(=O)[C@H](Cc1ccccc1)NC(=O)[C@@H](N)CO)C(=O)N[C@@H](CC(N)=O)C(=O)O
REMARK SMILES IDX 16 1 12 2 13 3 14 4 15 5 17 6 18 7 19 8 25 9 26 10 27 11
REMARK SMILES IDX 28 13 36 14 37 15 38 16 39 18 40 19 41 22 42 23 29 25 30 26
REMARK SMILES IDX 31 27 35 28 32 29 34 30 33 31 20 32 21 33 22 34 23 35 24 36
REMARK SMILES IDX 10 39 9 40 11 41 8 43 43 44 45 45 44 46 46 48 51 49 52 50
REMARK SMILES IDX 53 51 47 53 48 54 49 55 50 56 7 59 6 60 5 61 4 62 2 63 3 64
REMARK SMILES IDX 1 68
REMARK H PARENT 25 12 36 17 40 20 40 21 42 24 24 37 24 38 9 42 45 47 53 52
REMARK H PARENT 49 57 49 58 4 65 3 66 3 67 1 69
ROOT
ATOM      1  N   PRO A   4       0.350  -0.675  -3.173  1.00  0.00    -0.329 N 
ATOM      2  CA  PRO A   4       1.601  -1.422  -3.145  1.00  0.00     0.174 C 
ATOM      3  CB  PRO A   4       1.958  -1.656  -4.617  1.00  0.00     0.037 C 
ATOM      4  CG  PRO A   4       0.656  -1.429  -5.392  1.00  0.00     0.024 C 
ATOM      5  CD  PRO A   4      -0.208  -0.546  -4.504  1.00  0.00     0.120 C 
ENDROOT
BRANCH   1   6
ATOM      6  C   LYS A   3      -0.219  -0.018  -2.033  1.00  0.00     0.245 C 
ATOM      7  O   LYS A   3      -0.046   1.224  -1.893  1.00  0.00    -0.272 OA
BRANCH   6   8
ATOM      8  CA  LYS A   3      -0.924  -0.807  -0.955  1.00  0.00     0.171 C 
BRANCH   8   9
ATOM      9  N   LYS A   3      -1.829   0.064  -0.188  1.00  0.00    -0.343 N 
ATOM     10  C   PHE A   2      -2.896   0.832  -0.786  1.00  0.00     0.243 C 
ATOM     11  O   PHE A   2      -3.116   0.735  -2.023  1.00  0.00    -0.273 OA
ATOM     12  H   UNL     1      -1.630   0.147   0.832  1.00  0.00     0.164 HD
BRANCH  10  13
ATOM     13  CA  PHE A   2      -3.684   1.859   0.005  1.00  0.00     0.175 C 
BRANCH  13  14
ATOM     14  N   PHE A   2      -5.038   1.993  -0.552  1.00  0.00    -0.343 N 
ATOM     15  C   SER A   1      -5.994   0.917  -0.583  1.00  0.00     0.239 C 
ATOM     16  O   SER A   1      -5.679  -0.221  -0.141  1.00  0.00    -0.273 OA
ATOM     17  H   UNL     1      -5.306   2.923  -0.941  1.00  0.00     0.164 HD
BRANCH  15  18
ATOM     18  CA  SER A   1      -7.401   1.168  -1.079  1.00  0.00     0.167 C 
BRANCH  18  19
ATOM     19  N   SER A   1      -8.019  -0.053  -1.604  1.00  0.00    -0.318 NA
ATOM     20  H   UNL     1      -8.083  -0.774  -0.848  1.00  0.00     0.119 HD
ATOM     21  H   UNL     1      -7.411  -0.442  -2.361  1.00  0.00     0.119 HD
ENDBRANCH  18  19
BRANCH  18  22
ATOM     22  CB  SER A   1      -8.253   1.753   0.058  1.00  0.00     0.184 C 
BRANCH  22  23
ATOM     23  OG  SER A   1      -9.547   2.056  -0.394  1.00  0.00    -0.394 OA
ATOM     24  H   UNL     1     -10.061   1.209  -0.363  1.00  0.00     0.210 HD
ENDBRANCH  22  23
ENDBRANCH  18  22
ENDBRANCH  15  18
ENDBRANCH  13  14
BRANCH  13  25
ATOM     25  CB  PHE A   2      -3.734   1.586   1.527  1.00  0.00     0.070 C 
BRANCH  25  26
ATOM     26  CG  PHE A   2      -4.710   2.501   2.226  1.00  0.00    -0.045 A 
ATOM     27  CD1 PHE A   2      -5.910   1.990   2.754  1.00  0.00     0.004 A 
ATOM     28  CD2 PHE A   2      -4.446   3.878   2.323  1.00  0.00     0.004 A 
ATOM     29  CE1 PHE A   2      -6.833   2.849   3.353  1.00  0.00     0.000 A 
ATOM     30  CE2 PHE A   2      -5.373   4.729   2.934  1.00  0.00     0.000 A 
ATOM     31  CZ  PHE A   2      -6.570   4.220   3.436  1.00  0.00     0.000 A 
ENDBRANCH  25  26
ENDBRANCH  13  25
ENDBRANCH  10  13
ENDBRANCH   8   9
BRANCH   8  32
ATOM     32  CB  LYS A   3      -1.682  -2.023  -1.538  1.00  0.00     0.035 C 
BRANCH  32  33
ATOM     33  CG  LYS A   3      -2.468  -2.828  -0.489  1.00  0.00     0.004 C 
BRANCH  33  34
ATOM     34  CD  LYS A   3      -1.552  -3.527   0.526  1.00  0.00     0.015 C 
BRANCH  34  35
ATOM     35  CE  LYS A   3      -2.302  -4.571   1.362  1.00  0.00     0.077 C 
BRANCH  35  36
ATOM     36  NZ  LYS A   3      -3.267  -3.931   2.251  1.00  0.00    -0.330 NA
ATOM     37  H   UNL     1      -4.100  -3.648   1.685  1.00  0.00     0.118 HD
ATOM     38  H   UNL     1      -3.602  -4.649   2.933  1.00  0.00     0.118 HD
ENDBRANCH  35  36
ENDBRANCH  34  35
ENDBRANCH  33  34
ENDBRANCH  32  33
ENDBRANCH   8  32
ENDBRANCH   6   8
ENDBRANCH   1   6
BRANCH   2  39
ATOM     39  C   PRO A   4       2.667  -0.651  -2.403  1.00  0.00     0.243 C 
ATOM     40  N   ARG A   5       3.168  -1.147  -1.151  1.00  0.00    -0.343 N 
ATOM     41  O   PRO A   4       3.081   0.451  -2.861  1.00  0.00    -0.273 OA
ATOM     42  H   UNL     1       2.746  -2.022  -0.759  1.00  0.00     0.164 HD
BRANCH  40  43
ATOM     43  CA  ARG A   5       4.048  -0.353  -0.288  1.00  0.00     0.171 C 
BRANCH  43  44
ATOM     44  C   ARG A   5       5.053  -1.270   0.361  1.00  0.00     0.243 C 
ATOM     45  N   ASN A   6       6.425  -1.246  -0.043  1.00  0.00    -0.341 N 
ATOM     46  O   ARG A   5       4.673  -2.068   1.258  1.00  0.00    -0.273 OA
ATOM     47  H   UNL     1       6.701  -0.605  -0.821  1.00  0.00     0.164 HD
BRANCH  45  48
ATOM     48  CA  ASN A   6       7.468  -1.947   0.707  1.00  0.00     0.201 C 
BRANCH  48  49
ATOM     49  C   ASN A   6       7.802  -1.165   1.946  1.00  0.00     0.326 C 
ATOM     50  O   ASN A   6       8.104   0.058   1.864  1.00  0.00    -0.250 OA
BRANCH  49  51
ATOM     51  OXT ASN A   6       7.776  -1.797   3.187  1.00  0.00    -0.480 OA
ATOM     52  H   UNL     1       8.012  -1.289   4.028  1.00  0.00     0.296 HD
ENDBRANCH  49  51
ENDBRANCH  48  49
BRANCH  48  53
ATOM     53  CB  ASN A   6       8.712  -2.143  -0.174  1.00  0.00     0.136 C 
BRANCH  53  54
ATOM     54  CG  ASN A   6       9.724  -3.032   0.486  1.00  0.00     0.220 C 
ATOM     55  ND2 ASN A   6       9.621  -4.454   0.370  1.00  0.00    -0.370 N 
ATOM     56  OD1 ASN A   6      10.647  -2.519   1.181  1.00  0.00    -0.275 OA
ATOM     57  H   UNL     1      10.302  -5.076   0.866  1.00  0.00     0.159 HD
ATOM     58  H   UNL     1       8.871  -4.882  -0.225  1.00  0.00     0.159 HD
ENDBRANCH  53  54
ENDBRANCH  48  53
ENDBRANCH  45  48
ENDBRANCH  43  44
BRANCH  43  59
ATOM     59  CB  ARG A   5       3.200   0.401   0.761  1.00  0.00     0.037 C 
BRANCH  59  60
ATOM     60  CG  ARG A   5       4.024   1.267   1.741  1.00  0.00     0.024 C 
BRANCH  60  61
ATOM     61  CD  ARG A   5       4.703   2.480   1.082  1.00  0.00     0.116 C 
BRANCH  61  62
ATOM     62  NE  ARG A   5       3.732   3.340   0.407  1.00  0.00    -0.357 N 
ATOM     63  CZ  ARG A   5       2.778   4.146   1.106  1.00  0.00     0.185 C 
ATOM     64  NH2 ARG A   5       1.785   4.866   0.372  1.00  0.00    -0.370 N 
ATOM     65  H   UNL     1       3.763   3.386  -0.633  1.00  0.00     0.163 HD
ATOM     66  H   UNL     1       1.723   4.763  -0.670  1.00  0.00     0.159 HD
ATOM     67  H   UNL     1       1.055   5.431   0.869  1.00  0.00     0.159 HD
BRANCH  63  68
ATOM     68  NH1 ARG A   5       2.799   4.208   2.397  1.00  0.00    -0.270 NA
ATOM     69  H   UNL     1       2.109   4.779   2.928  1.00  0.00     0.191 HD
ENDBRANCH  63  68
ENDBRANCH  61  62
ENDBRANCH  60  61
ENDBRANCH  59  60
ENDBRANCH  43  59
ENDBRANCH  40  43
ENDBRANCH   2  39
TORSDOF 29
