REMARK SMILES N=C(N)NCCC[C@H](NC(=O)CNC(=O)[C@H](Cc1ccccc1)NC(=O)[C@@H](N)CO)C(=O)N[C@@H](CCCNC(=N)N)C(=O)N[C@@H](CC(N)=O)C(=O)O
REMARK SMILES IDX 10 1 11 2 9 3 12 5 13 6 14 7 15 8 16 10 24 11 25 12 26 13
REMARK SMILES IDX 27 15 28 16 29 19 30 20 17 22 18 23 19 24 23 25 20 26 22 27
REMARK SMILES IDX 21 28 8 29 31 30 33 31 32 32 34 34 42 35 44 36 43 37 45 39
REMARK SMILES IDX 50 40 51 41 52 42 46 44 47 45 48 46 49 47 35 50 36 51 37 52
REMARK SMILES IDX 38 53 39 54 41 55 40 59 7 61 6 62 5 63 4 64 2 65 3 66 1 70
REMARK H PARENT 9 4 13 9 24 14 28 17 28 18 30 21 33 33 44 38 52 43 48 48 48 49
REMARK H PARENT 38 56 41 57 41 58 40 60 4 67 3 68 3 69 1 71
ROOT
ATOM      1  C   GLY A   3      20.042  10.102  -6.467  1.00  0.00     0.240 C 
ATOM      2  O   GLY A   3      20.173   9.205  -5.588  1.00  0.00    -0.273 OA
ATOM      3  N   ARG A   4      20.557   9.920  -7.777  1.00  0.00    -0.343 N 
ATOM      4  H   UNL     1      20.387  10.653  -8.504  1.00  0.00     0.164 HD
ENDROOT
BRANCH   1   5
ATOM      5  CA  GLY A   3      19.352  11.378  -6.153  1.00  0.00     0.216 C 
BRANCH   5   6
ATOM      6  N   GLY A   3      18.113  11.084  -5.477  1.00  0.00    -0.345 N 
ATOM      7  C   PHE A   2      16.897  11.757  -5.771  1.00  0.00     0.243 C 
ATOM      8  O   PHE A   2      16.902  12.791  -6.493  1.00  0.00    -0.273 OA
ATOM      9  H   UNL     1      18.215  10.611  -4.553  1.00  0.00     0.164 HD
BRANCH   7  10
ATOM     10  CA  PHE A   2      15.660  11.315  -5.059  1.00  0.00     0.175 C 
BRANCH  10  11
ATOM     11  N   PHE A   2      14.461  11.739  -5.769  1.00  0.00    -0.343 N 
ATOM     12  C   SER A   1      13.919  13.047  -5.634  1.00  0.00     0.239 C 
ATOM     13  O   SER A   1      14.447  13.866  -4.832  1.00  0.00    -0.273 OA
ATOM     14  H   UNL     1      13.876  10.998  -6.213  1.00  0.00     0.164 HD
BRANCH  12  15
ATOM     15  CA  SER A   1      12.662  13.408  -6.390  1.00  0.00     0.167 C 
BRANCH  15  16
ATOM     16  N   SER A   1      12.454  14.858  -6.401  1.00  0.00    -0.318 NA
ATOM     17  H   UNL     1      13.315  15.335  -6.757  1.00  0.00     0.119 HD
ATOM     18  H   UNL     1      12.284  15.187  -5.423  1.00  0.00     0.119 HD
ENDBRANCH  15  16
BRANCH  15  19
ATOM     19  CB  SER A   1      12.693  12.885  -7.841  1.00  0.00     0.184 C 
BRANCH  19  20
ATOM     20  OG  SER A   1      11.438  13.058  -8.436  1.00  0.00    -0.394 OA
ATOM     21  H   UNL     1      11.539  12.785  -9.385  1.00  0.00     0.210 HD
ENDBRANCH  19  20
ENDBRANCH  15  19
ENDBRANCH  12  15
ENDBRANCH  10  11
BRANCH  10  22
ATOM     22  CB  PHE A   2      15.629   9.778  -4.890  1.00  0.00     0.070 C 
BRANCH  22  23
ATOM     23  CG  PHE A   2      14.457   9.289  -4.087  1.00  0.00    -0.045 A 
ATOM     24  CD1 PHE A   2      13.910  10.047  -3.033  1.00  0.00     0.004 A 
ATOM     25  CD2 PHE A   2      13.977   7.991  -4.310  1.00  0.00     0.004 A 
ATOM     26  CE1 PHE A   2      12.872   9.537  -2.263  1.00  0.00     0.000 A 
ATOM     27  CE2 PHE A   2      12.944   7.479  -3.524  1.00  0.00     0.000 A 
ATOM     28  CZ  PHE A   2      12.389   8.254  -2.506  1.00  0.00     0.000 A 
ENDBRANCH  22  23
ENDBRANCH  10  22
ENDBRANCH   7  10
ENDBRANCH   5   6
ENDBRANCH   1   5
BRANCH   3  29
ATOM     29  CA  ARG A   4      21.343   8.759  -8.141  1.00  0.00     0.171 C 
BRANCH  29  30
ATOM     30  C   ARG A   4      22.711   9.215  -8.519  1.00  0.00     0.243 C 
ATOM     31  N   ARG A   5      23.820   8.719  -7.784  1.00  0.00    -0.343 N 
ATOM     32  O   ARG A   4      22.876  10.032  -9.466  1.00  0.00    -0.273 OA
ATOM     33  H   UNL     1      23.664   8.027  -7.015  1.00  0.00     0.164 HD
BRANCH  31  34
ATOM     34  CA  ARG A   5      25.184   9.121  -8.072  1.00  0.00     0.171 C 
BRANCH  34  35
ATOM     35  C   ARG A   5      25.899   7.967  -8.685  1.00  0.00     0.243 C 
ATOM     36  N   ASN A   6      25.913   7.864 -10.102  1.00  0.00    -0.341 N 
ATOM     37  O   ARG A   5      26.447   7.086  -7.969  1.00  0.00    -0.273 OA
ATOM     38  H   UNL     1      25.489   8.648 -10.651  1.00  0.00     0.164 HD
BRANCH  36  39
ATOM     39  CA  ASN A   6      26.542   6.751 -10.804  1.00  0.00     0.201 C 
BRANCH  39  40
ATOM     40  C   ASN A   6      27.993   6.642 -10.415  1.00  0.00     0.326 C 
ATOM     41  O   ASN A   6      28.794   7.579 -10.677  1.00  0.00    -0.250 OA
BRANCH  40  42
ATOM     42  OXT ASN A   6      28.451   5.499  -9.768  1.00  0.00    -0.480 OA
ATOM     43  H   UNL     1      29.424   5.409  -9.499  1.00  0.00     0.296 HD
ENDBRANCH  40  42
ENDBRANCH  39  40
BRANCH  39  44
ATOM     44  CB  ASN A   6      26.425   6.947 -12.323  1.00  0.00     0.136 C 
BRANCH  44  45
ATOM     45  CG  ASN A   6      25.011   7.181 -12.773  1.00  0.00     0.220 C 
ATOM     46  ND2 ASN A   6      24.754   8.091 -13.834  1.00  0.00    -0.370 N 
ATOM     47  OD1 ASN A   6      24.053   6.558 -12.243  1.00  0.00    -0.275 OA
ATOM     48  H   UNL     1      23.775   8.258 -14.157  1.00  0.00     0.159 HD
ATOM     49  H   UNL     1      25.533   8.600 -14.306  1.00  0.00     0.159 HD
ENDBRANCH  44  45
ENDBRANCH  39  44
ENDBRANCH  36  39
ENDBRANCH  34  35
BRANCH  34  50
ATOM     50  CB  ARG A   5      25.862   9.604  -6.795  1.00  0.00     0.037 C 
BRANCH  50  51
ATOM     51  CG  ARG A   5      25.167  10.859  -6.270  1.00  0.00     0.024 C 
BRANCH  51  52
ATOM     52  CD  ARG A   5      25.842  11.390  -5.014  1.00  0.00     0.116 C 
BRANCH  52  53
ATOM     53  NE  ARG A   5      25.378  10.687  -3.820  1.00  0.00    -0.357 N 
ATOM     54  CZ  ARG A   5      25.470  11.282  -2.526  1.00  0.00     0.185 C 
ATOM     55  NH2 ARG A   5      26.109  12.546  -2.351  1.00  0.00    -0.370 N 
ATOM     56  H   UNL     1      24.900   9.761  -3.912  1.00  0.00     0.163 HD
ATOM     57  H   UNL     1      26.700  12.981  -3.092  1.00  0.00     0.159 HD
ATOM     58  H   UNL     1      26.084  13.022  -1.422  1.00  0.00     0.159 HD
BRANCH  54  59
ATOM     59  NH1 ARG A   5      24.956  10.671  -1.506  1.00  0.00    -0.270 NA
ATOM     60  H   UNL     1      24.999  11.075  -0.544  1.00  0.00     0.191 HD
ENDBRANCH  54  59
ENDBRANCH  52  53
ENDBRANCH  51  52
ENDBRANCH  50  51
ENDBRANCH  34  50
ENDBRANCH  31  34
ENDBRANCH  29  30
BRANCH  29  61
ATOM     61  CB  ARG A   4      20.656   8.003  -9.280  1.00  0.00     0.037 C 
BRANCH  61  62
ATOM     62  CG  ARG A   4      21.440   6.769  -9.763  1.00  0.00     0.024 C 
BRANCH  62  63
ATOM     63  CD  ARG A   4      21.776   5.760  -8.654  1.00  0.00     0.116 C 
BRANCH  63  64
ATOM     64  NE  ARG A   4      20.574   5.241  -7.997  1.00  0.00    -0.357 N 
ATOM     65  CZ  ARG A   4      20.647   4.398  -6.839  1.00  0.00     0.185 C 
ATOM     66  NH2 ARG A   4      19.442   3.920  -6.236  1.00  0.00    -0.370 N 
ATOM     67  H   UNL     1      19.630   5.455  -8.390  1.00  0.00     0.163 HD
ATOM     68  H   UNL     1      19.472   3.305  -5.392  1.00  0.00     0.159 HD
ATOM     69  H   UNL     1      18.512   4.183  -6.631  1.00  0.00     0.159 HD
BRANCH  65  70
ATOM     70  NH1 ARG A   4      21.797   4.070  -6.340  1.00  0.00    -0.270 NA
ATOM     71  H   UNL     1      21.876   3.458  -5.497  1.00  0.00     0.191 HD
ENDBRANCH  65  70
ENDBRANCH  63  64
ENDBRANCH  62  63
ENDBRANCH  61  62
ENDBRANCH  29  61
ENDBRANCH   3  29
TORSDOF 29
