REMARK SMILES CC(C)C[C@H](NC(=O)[C@H](CCCCN)NC(=O)[C@H](Cc1ccccc1)NC(=O)[C@@H](N)CO)C(=O)N[C@@H](CCC(N)=O)C(=O)N[C@@H](CC(N)=O)C(=O)O
REMARK SMILES IDX 7 1 8 2 6 3 9 5 15 6 16 7 17 8 18 10 26 11 27 12 28 13 29 15
REMARK SMILES IDX 30 16 31 19 32 20 19 22 20 23 21 24 25 25 22 26 24 27 23 28
REMARK SMILES IDX 10 29 11 30 12 31 13 32 14 33 5 36 33 37 35 38 34 39 36 41
REMARK SMILES IDX 42 42 44 43 43 44 45 46 50 47 51 48 52 49 46 51 47 52 48 53
REMARK SMILES IDX 49 54 37 57 38 58 39 59 40 60 41 61 4 64 2 65 1 66 3 67
REMARK H PARENT 6 4 15 9 26 14 30 17 30 18 32 21 14 34 14 35 35 40 44 45 52 50
REMARK H PARENT 48 55 48 56 40 62 40 63
ROOT
ATOM      1  C   LYS A   3      -0.799  -2.097   0.320  1.00  0.00     0.243 C 
ATOM      2  O   LYS A   3      -1.035  -2.068   1.561  1.00  0.00    -0.273 OA
ATOM      3  N   LEU A   4       0.566  -2.034  -0.146  1.00  0.00    -0.343 N 
ATOM      4  H   UNL     1       0.778  -2.204  -1.153  1.00  0.00     0.164 HD
ENDROOT
BRANCH   1   5
ATOM      5  CA  LYS A   3      -1.986  -2.165  -0.623  1.00  0.00     0.171 C 
BRANCH   5   6
ATOM      6  N   LYS A   3      -2.652  -0.859  -0.669  1.00  0.00    -0.343 N 
ATOM      7  C   PHE A   2      -3.643  -0.474   0.299  1.00  0.00     0.243 C 
ATOM      8  O   PHE A   2      -3.772  -1.153   1.357  1.00  0.00    -0.273 OA
ATOM      9  H   UNL     1      -2.396  -0.199  -1.441  1.00  0.00     0.164 HD
BRANCH   7  10
ATOM     10  CA  PHE A   2      -4.613   0.656   0.025  1.00  0.00     0.175 C 
BRANCH  10  11
ATOM     11  N   PHE A   2      -5.311   1.024   1.264  1.00  0.00    -0.343 N 
ATOM     12  C   SER A   1      -6.549   0.413   1.662  1.00  0.00     0.239 C 
ATOM     13  O   SER A   1      -7.024  -0.544   0.993  1.00  0.00    -0.273 OA
ATOM     14  H   UNL     1      -4.837   1.696   1.912  1.00  0.00     0.164 HD
BRANCH  12  15
ATOM     15  CA  SER A   1      -7.298   0.905   2.875  1.00  0.00     0.167 C 
BRANCH  15  16
ATOM     16  N   SER A   1      -6.454   0.823   4.070  1.00  0.00    -0.318 NA
ATOM     17  H   UNL     1      -7.052   1.006   4.910  1.00  0.00     0.119 HD
ATOM     18  H   UNL     1      -5.715   1.566   4.046  1.00  0.00     0.119 HD
ENDBRANCH  15  16
BRANCH  15  19
ATOM     19  CB  SER A   1      -7.865   2.320   2.664  1.00  0.00     0.184 C 
BRANCH  19  20
ATOM     20  OG  SER A   1      -6.835   3.264   2.525  1.00  0.00    -0.394 OA
ATOM     21  H   UNL     1      -7.282   4.143   2.405  1.00  0.00     0.210 HD
ENDBRANCH  19  20
ENDBRANCH  15  19
ENDBRANCH  12  15
ENDBRANCH  10  11
BRANCH  10  22
ATOM     22  CB  PHE A   2      -3.916   1.894  -0.578  1.00  0.00     0.070 C 
BRANCH  22  23
ATOM     23  CG  PHE A   2      -4.833   3.094  -0.612  1.00  0.00    -0.045 A 
ATOM     24  CD1 PHE A   2      -5.964   3.099  -1.447  1.00  0.00     0.004 A 
ATOM     25  CD2 PHE A   2      -4.586   4.200   0.223  1.00  0.00     0.004 A 
ATOM     26  CE1 PHE A   2      -6.837   4.190  -1.441  1.00  0.00     0.000 A 
ATOM     27  CE2 PHE A   2      -5.460   5.291   0.220  1.00  0.00     0.000 A 
ATOM     28  CZ  PHE A   2      -6.588   5.284  -0.606  1.00  0.00     0.000 A 
ENDBRANCH  22  23
ENDBRANCH  10  22
ENDBRANCH   7  10
ENDBRANCH   5   6
BRANCH   5  29
ATOM     29  CB  LYS A   3      -1.626  -2.635  -2.053  1.00  0.00     0.035 C 
BRANCH  29  30
ATOM     30  CG  LYS A   3      -2.845  -2.775  -2.986  1.00  0.00     0.004 C 
BRANCH  30  31
ATOM     31  CD  LYS A   3      -3.832  -3.886  -2.564  1.00  0.00     0.015 C 
BRANCH  31  32
ATOM     32  CE  LYS A   3      -5.132  -3.307  -1.982  1.00  0.00     0.077 C 
BRANCH  32  33
ATOM     33  NZ  LYS A   3      -6.060  -4.364  -1.587  1.00  0.00    -0.330 NA
ATOM     34  H   UNL     1      -5.607  -4.961  -0.859  1.00  0.00     0.118 HD
ATOM     35  H   UNL     1      -6.255  -4.969  -2.415  1.00  0.00     0.118 HD
ENDBRANCH  32  33
ENDBRANCH  31  32
ENDBRANCH  30  31
ENDBRANCH  29  30
ENDBRANCH   5  29
ENDBRANCH   1   5
BRANCH   3  36
ATOM     36  CA  LEU A   4       1.696  -1.756   0.752  1.00  0.00     0.171 C 
BRANCH  36  37
ATOM     37  C   LEU A   4       2.517  -0.585   0.268  1.00  0.00     0.243 C 
ATOM     38  N   GLN A   5       3.413   0.069   1.180  1.00  0.00    -0.343 N 
ATOM     39  O   LEU A   4       2.407  -0.171  -0.917  1.00  0.00    -0.273 OA
ATOM     40  H   UNL     1       3.400  -0.231   2.180  1.00  0.00     0.164 HD
BRANCH  38  41
ATOM     41  CA  GLN A   5       4.309   1.154   0.761  1.00  0.00     0.171 C 
BRANCH  41  42
ATOM     42  C   GLN A   5       5.482   0.610  -0.010  1.00  0.00     0.243 C 
ATOM     43  N   ASN A   6       6.137   1.430  -0.988  1.00  0.00    -0.341 N 
ATOM     44  O   GLN A   5       5.935  -0.533   0.265  1.00  0.00    -0.273 OA
ATOM     45  H   UNL     1       5.771   2.396  -1.143  1.00  0.00     0.164 HD
BRANCH  43  46
ATOM     46  CA  ASN A   6       7.415   1.042  -1.593  1.00  0.00     0.201 C 
BRANCH  46  47
ATOM     47  C   ASN A   6       8.538   1.368  -0.651  1.00  0.00     0.326 C 
ATOM     48  O   ASN A   6       8.574   2.481  -0.061  1.00  0.00    -0.250 OA
BRANCH  47  49
ATOM     49  OXT ASN A   6       9.555   0.443  -0.449  1.00  0.00    -0.480 OA
ATOM     50  H   UNL     1      10.326   0.651   0.174  1.00  0.00     0.296 HD
ENDBRANCH  47  49
ENDBRANCH  46  47
BRANCH  46  51
ATOM     51  CB  ASN A   6       7.633   1.763  -2.934  1.00  0.00     0.136 C 
BRANCH  51  52
ATOM     52  CG  ASN A   6       6.597   1.359  -3.937  1.00  0.00     0.220 C 
ATOM     53  ND2 ASN A   6       5.470   2.200  -4.198  1.00  0.00    -0.370 N 
ATOM     54  OD1 ASN A   6       6.689   0.247  -4.520  1.00  0.00    -0.275 OA
ATOM     55  H   UNL     1       5.370   3.118  -3.713  1.00  0.00     0.159 HD
ATOM     56  H   UNL     1       4.729   1.900  -4.870  1.00  0.00     0.159 HD
ENDBRANCH  51  52
ENDBRANCH  46  51
ENDBRANCH  43  46
ENDBRANCH  41  42
BRANCH  41  57
ATOM     57  CB  GLN A   5       4.772   1.993   1.974  1.00  0.00     0.045 C 
BRANCH  57  58
ATOM     58  CG  GLN A   5       5.786   1.274   2.887  1.00  0.00     0.102 C 
BRANCH  58  59
ATOM     59  CD  GLN A   5       6.030   2.033   4.162  1.00  0.00     0.217 C 
ATOM     60  NE2 GLN A   5       6.206   1.331   5.395  1.00  0.00    -0.370 N 
ATOM     61  OE1 GLN A   5       6.129   3.292   4.146  1.00  0.00    -0.275 OA
ATOM     62  H   UNL     1       6.428   1.856   6.268  1.00  0.00     0.159 HD
ATOM     63  H   UNL     1       6.122   0.291   5.432  1.00  0.00     0.159 HD
ENDBRANCH  58  59
ENDBRANCH  57  58
ENDBRANCH  41  57
ENDBRANCH  38  41
ENDBRANCH  36  37
BRANCH  36  64
ATOM     64  CB  LEU A   4       2.562  -3.017   0.993  1.00  0.00     0.038 C 
BRANCH  64  65
ATOM     65  CG  LEU A   4       2.898  -3.890  -0.246  1.00  0.00    -0.015 C 
ATOM     66  CD1 LEU A   4       3.676  -5.132   0.210  1.00  0.00     0.007 C 
ATOM     67  CD2 LEU A   4       3.714  -3.141  -1.307  1.00  0.00     0.007 C 
ENDBRANCH  64  65
ENDBRANCH  36  64
ENDBRANCH   3  36
TORSDOF 29
