REMARK SMILES N=C(N)NCCC[C@H](NC(=O)[C@H](Cc1ccccc1)NC(=O)[C@H](CCCCN)NC(=O)[C@H](Cc1ccccc1)NC(=O)[C@@H](N)CO)C(=O)N[C@@H](CC(N)=O)C(=O)O
REMARK SMILES IDX 21 1 22 2 20 3 23 5 29 6 30 7 31 8 32 10 40 11 41 12 42 13
REMARK SMILES IDX 43 15 44 16 45 19 46 20 33 22 34 23 35 24 39 25 36 26 38 27
REMARK SMILES IDX 37 28 24 29 25 30 26 31 27 32 28 33 12 36 10 37 9 38 11 39
REMARK SMILES IDX 8 41 47 42 49 43 48 44 50 46 55 47 56 48 57 49 51 51 52 52
REMARK SMILES IDX 53 53 54 54 7 57 6 58 5 59 4 60 2 61 3 62 1 66 13 68 14 69
REMARK SMILES IDX 15 70 19 71 16 72 18 73 17 74
REMARK H PARENT 20 4 29 9 40 14 44 17 44 18 46 21 28 34 28 35 9 40 49 45 57 50
REMARK H PARENT 53 55 53 56 4 63 3 64 3 65 1 67
ROOT
ATOM      1  C   LYS A   3      20.042  10.073  -6.478  1.00  0.00     0.243 C 
ATOM      2  O   LYS A   3      20.162   9.154  -5.622  1.00  0.00    -0.273 OA
ATOM      3  N   PHE A   4      20.557   9.905  -7.790  1.00  0.00    -0.342 N 
ATOM      4  H   UNL     1      20.396  10.652  -8.504  1.00  0.00     0.164 HD
ENDROOT
BRANCH   1   5
ATOM      5  CA  LYS A   3      19.339  11.350  -6.144  1.00  0.00     0.171 C 
BRANCH   5   6
ATOM      6  N   LYS A   3      18.088  11.044  -5.501  1.00  0.00    -0.343 N 
ATOM      7  C   PHE A   2      16.887  11.748  -5.772  1.00  0.00     0.243 C 
ATOM      8  O   PHE A   2      16.904  12.791  -6.483  1.00  0.00    -0.273 OA
ATOM      9  H   UNL     1      18.166  10.507  -4.612  1.00  0.00     0.164 HD
BRANCH   7  10
ATOM     10  CA  PHE A   2      15.650  11.313  -5.059  1.00  0.00     0.175 C 
BRANCH  10  11
ATOM     11  N   PHE A   2      14.453  11.740  -5.769  1.00  0.00    -0.343 N 
ATOM     12  C   SER A   1      13.914  13.049  -5.637  1.00  0.00     0.239 C 
ATOM     13  O   SER A   1      14.447  13.869  -4.840  1.00  0.00    -0.273 OA
ATOM     14  H   UNL     1      13.862  10.999  -6.207  1.00  0.00     0.164 HD
BRANCH  12  15
ATOM     15  CA  SER A   1      12.655  13.409  -6.387  1.00  0.00     0.167 C 
BRANCH  15  16
ATOM     16  N   SER A   1      12.467  14.862  -6.384  1.00  0.00    -0.318 NA
ATOM     17  H   UNL     1      12.301  15.172  -5.399  1.00  0.00     0.119 HD
ATOM     18  H   UNL     1      11.582  15.088  -6.894  1.00  0.00     0.119 HD
ENDBRANCH  15  16
BRANCH  15  19
ATOM     19  CB  SER A   1      12.698  12.894  -7.844  1.00  0.00     0.184 C 
BRANCH  19  20
ATOM     20  OG  SER A   1      11.440  13.041  -8.440  1.00  0.00    -0.394 OA
ATOM     21  H   UNL     1      11.549  12.779  -9.392  1.00  0.00     0.210 HD
ENDBRANCH  19  20
ENDBRANCH  15  19
ENDBRANCH  12  15
ENDBRANCH  10  11
BRANCH  10  22
ATOM     22  CB  PHE A   2      15.613   9.773  -4.890  1.00  0.00     0.070 C 
BRANCH  22  23
ATOM     23  CG  PHE A   2      14.444   9.289  -4.090  1.00  0.00    -0.045 A 
ATOM     24  CD1 PHE A   2      13.903  10.046  -3.033  1.00  0.00     0.004 A 
ATOM     25  CD2 PHE A   2      13.968   7.989  -4.310  1.00  0.00     0.004 A 
ATOM     26  CE1 PHE A   2      12.869   9.535  -2.260  1.00  0.00     0.000 A 
ATOM     27  CE2 PHE A   2      12.939   7.477  -3.521  1.00  0.00     0.000 A 
ATOM     28  CZ  PHE A   2      12.386   8.252  -2.502  1.00  0.00     0.000 A 
ENDBRANCH  22  23
ENDBRANCH  10  22
ENDBRANCH   7  10
ENDBRANCH   5   6
BRANCH   5  29
ATOM     29  CB  LYS A   3      20.190  12.249  -5.243  1.00  0.00     0.035 C 
BRANCH  29  30
ATOM     30  CG  LYS A   3      20.428  11.705  -3.815  1.00  0.00     0.004 C 
BRANCH  30  31
ATOM     31  CD  LYS A   3      21.825  12.067  -3.296  1.00  0.00     0.015 C 
BRANCH  31  32
ATOM     32  CE  LYS A   3      22.083  13.581  -3.161  1.00  0.00     0.077 C 
BRANCH  32  33
ATOM     33  NZ  LYS A   3      21.219  14.211  -2.163  1.00  0.00    -0.330 NA
ATOM     34  H   UNL     1      20.240  14.244  -2.527  1.00  0.00     0.118 HD
ATOM     35  H   UNL     1      21.224  13.639  -1.287  1.00  0.00     0.118 HD
ENDBRANCH  32  33
ENDBRANCH  31  32
ENDBRANCH  30  31
ENDBRANCH  29  30
ENDBRANCH   5  29
ENDBRANCH   1   5
BRANCH   3  36
ATOM     36  CA  PHE A   4      21.352   8.749  -8.173  1.00  0.00     0.175 C 
BRANCH  36  37
ATOM     37  C   PHE A   4      22.718   9.230  -8.508  1.00  0.00     0.243 C 
ATOM     38  N   ARG A   5      23.822   8.719  -7.777  1.00  0.00    -0.343 N 
ATOM     39  O   PHE A   4      22.891  10.055  -9.447  1.00  0.00    -0.273 OA
ATOM     40  H   UNL     1      23.662   7.992  -7.043  1.00  0.00     0.164 HD
BRANCH  38  41
ATOM     41  CA  ARG A   5      25.186   9.119  -8.067  1.00  0.00     0.171 C 
BRANCH  41  42
ATOM     42  C   ARG A   5      25.902   7.967  -8.684  1.00  0.00     0.243 C 
ATOM     43  N   ASN A   6      25.920   7.868 -10.102  1.00  0.00    -0.341 N 
ATOM     44  O   ARG A   5      26.448   7.084  -7.970  1.00  0.00    -0.273 OA
ATOM     45  H   UNL     1      25.495   8.651 -10.650  1.00  0.00     0.164 HD
BRANCH  43  46
ATOM     46  CA  ASN A   6      26.550   6.757 -10.807  1.00  0.00     0.201 C 
BRANCH  46  47
ATOM     47  C   ASN A   6      27.999   6.647 -10.417  1.00  0.00     0.326 C 
ATOM     48  O   ASN A   6      28.800   7.583 -10.678  1.00  0.00    -0.250 OA
BRANCH  47  49
ATOM     49  OXT ASN A   6      28.455   5.504  -9.768  1.00  0.00    -0.480 OA
ATOM     50  H   UNL     1      29.427   5.413  -9.498  1.00  0.00     0.296 HD
ENDBRANCH  47  49
ENDBRANCH  46  47
BRANCH  46  51
ATOM     51  CB  ASN A   6      26.432   6.954 -12.327  1.00  0.00     0.136 C 
BRANCH  51  52
ATOM     52  CG  ASN A   6      25.020   7.187 -12.785  1.00  0.00     0.220 C 
ATOM     53  ND2 ASN A   6      24.765   8.104 -13.838  1.00  0.00    -0.370 N 
ATOM     54  OD1 ASN A   6      24.064   6.549 -12.278  1.00  0.00    -0.275 OA
ATOM     55  H   UNL     1      25.544   8.625 -14.298  1.00  0.00     0.159 HD
ATOM     56  H   UNL     1      23.788   8.265 -14.169  1.00  0.00     0.159 HD
ENDBRANCH  51  52
ENDBRANCH  46  51
ENDBRANCH  43  46
ENDBRANCH  41  42
BRANCH  41  57
ATOM     57  CB  ARG A   5      25.863   9.603  -6.791  1.00  0.00     0.037 C 
BRANCH  57  58
ATOM     58  CG  ARG A   5      25.167  10.861  -6.270  1.00  0.00     0.024 C 
BRANCH  58  59
ATOM     59  CD  ARG A   5      25.839  11.393  -5.013  1.00  0.00     0.116 C 
BRANCH  59  60
ATOM     60  NE  ARG A   5      25.378  10.685  -3.822  1.00  0.00    -0.357 N 
ATOM     61  CZ  ARG A   5      25.467  11.279  -2.527  1.00  0.00     0.185 C 
ATOM     62  NH2 ARG A   5      26.104  12.542  -2.349  1.00  0.00    -0.370 N 
ATOM     63  H   UNL     1      24.899   9.760  -3.921  1.00  0.00     0.163 HD
ATOM     64  H   UNL     1      26.689  12.985  -3.090  1.00  0.00     0.159 HD
ATOM     65  H   UNL     1      26.075  13.010  -1.416  1.00  0.00     0.159 HD
BRANCH  61  66
ATOM     66  NH1 ARG A   5      24.955  10.680  -1.499  1.00  0.00    -0.270 NA
ATOM     67  H   UNL     1      24.473   9.757  -1.584  1.00  0.00     0.191 HD
ENDBRANCH  61  66
ENDBRANCH  59  60
ENDBRANCH  58  59
ENDBRANCH  57  58
ENDBRANCH  41  57
ENDBRANCH  38  41
ENDBRANCH  36  37
BRANCH  36  68
ATOM     68  CB  PHE A   4      20.716   8.051  -9.381  1.00  0.00     0.070 C 
BRANCH  68  69
ATOM     69  CG  PHE A   4      21.251   6.655  -9.631  1.00  0.00    -0.045 A 
ATOM     70  CD1 PHE A   4      20.331   5.586  -9.629  1.00  0.00     0.004 A 
ATOM     71  CD2 PHE A   4      22.616   6.360  -9.785  1.00  0.00     0.004 A 
ATOM     72  CE1 PHE A   4      20.764   4.264  -9.752  1.00  0.00     0.000 A 
ATOM     73  CE2 PHE A   4      23.047   5.030  -9.880  1.00  0.00     0.000 A 
ATOM     74  CZ  PHE A   4      22.124   3.986  -9.868  1.00  0.00     0.000 A 
ENDBRANCH  68  69
ENDBRANCH  36  68
ENDBRANCH   3  36
TORSDOF 31
