REMARK SMILES CC[C@H](C)[C@H](NC(=O)[C@H](Cc1c[nH]cn1)NC(=O)[C@@H](N)CO)C(=O)N[C@@H](CC(C)C)C(=O)N[C@@H](CCCNC(=N)N)C(=O)N[C@@H](CC(N)=O)C(=O)O
REMARK SMILES IDX 23 1 24 2 25 3 5 5 6 6 7 7 8 8 9 10 16 11 17 12 18 13 19 15
REMARK SMILES IDX 20 16 21 19 22 20 10 22 11 23 15 24 12 25 14 26 13 27 3 29
REMARK SMILES IDX 4 30 2 31 1 32 26 33 31 34 33 35 32 36 34 38 42 39 44 40
REMARK SMILES IDX 43 41 45 43 50 44 51 45 52 46 46 48 47 49 48 50 49 51 35 54
REMARK SMILES IDX 36 55 37 56 38 57 39 58 41 59 40 63 27 65 28 66 29 67 30 68
REMARK H PARENT 25 4 6 9 16 14 20 17 20 18 22 21 13 28 33 37 44 42 52 47 48 52
REMARK H PARENT 48 53 38 60 41 61 41 62 40 64
ROOT
ATOM      1  C   ILE A   3      20.027  10.082  -6.468  1.00  0.00     0.243 C 
ATOM      2  O   ILE A   3      20.143   9.160  -5.614  1.00  0.00    -0.273 OA
ATOM      3  N   LEU A   4      20.562   9.924  -7.773  1.00  0.00    -0.343 N 
ATOM      4  H   UNL     1      20.406  10.669  -8.490  1.00  0.00     0.164 HD
ENDROOT
BRANCH   1   5
ATOM      5  CA  ILE A   3      19.323  11.358  -6.132  1.00  0.00     0.174 C 
BRANCH   5   6
ATOM      6  N   ILE A   3      18.076  11.046  -5.475  1.00  0.00    -0.342 N 
ATOM      7  C   HIS A   2      16.868  11.741  -5.742  1.00  0.00     0.243 C 
ATOM      8  O   HIS A   2      16.876  12.775  -6.467  1.00  0.00    -0.273 OA
ATOM      9  H   UNL     1      18.152  10.502  -4.589  1.00  0.00     0.164 HD
BRANCH   7  10
ATOM     10  CA  HIS A   2      15.620  11.282  -5.041  1.00  0.00     0.177 C 
BRANCH  10  11
ATOM     11  N   HIS A   2      14.435  11.728  -5.760  1.00  0.00    -0.342 N 
ATOM     12  C   SER A   1      13.912  13.046  -5.635  1.00  0.00     0.239 C 
ATOM     13  O   SER A   1      14.453  13.863  -4.840  1.00  0.00    -0.273 OA
ATOM     14  H   UNL     1      13.842  11.000  -6.214  1.00  0.00     0.164 HD
BRANCH  12  15
ATOM     15  CA  SER A   1      12.655  13.411  -6.384  1.00  0.00     0.167 C 
BRANCH  15  16
ATOM     16  N   SER A   1      12.470  14.864  -6.380  1.00  0.00    -0.318 NA
ATOM     17  H   UNL     1      12.307  15.174  -5.394  1.00  0.00     0.119 HD
ATOM     18  H   UNL     1      11.585  15.091  -6.888  1.00  0.00     0.119 HD
ENDBRANCH  15  16
BRANCH  15  19
ATOM     19  CB  SER A   1      12.696  12.898  -7.844  1.00  0.00     0.184 C 
BRANCH  19  20
ATOM     20  OG  SER A   1      11.440  13.037  -8.449  1.00  0.00    -0.394 OA
ATOM     21  H   UNL     1      10.859  12.328  -8.068  1.00  0.00     0.210 HD
ENDBRANCH  19  20
ENDBRANCH  15  19
ENDBRANCH  12  15
ENDBRANCH  10  11
BRANCH  10  22
ATOM     22  CB  HIS A   2      15.581   9.739  -4.919  1.00  0.00     0.093 C 
BRANCH  22  23
ATOM     23  CG  HIS A   2      14.420   9.284  -4.095  1.00  0.00     0.061 A 
ATOM     24  ND1 HIS A   2      13.292   8.755  -4.609  1.00  0.00    -0.242 NA
ATOM     25  CD2 HIS A   2      14.308   9.387  -2.726  1.00  0.00     0.107 A 
ATOM     26  CE1 HIS A   2      12.515   8.536  -3.526  1.00  0.00     0.196 A 
ATOM     27  NE2 HIS A   2      13.105   8.910  -2.375  1.00  0.00    -0.351 N 
ATOM     28  H   UNL     1      12.707   8.848  -1.412  1.00  0.00     0.167 HD
ENDBRANCH  22  23
ENDBRANCH  10  22
ENDBRANCH   7  10
ENDBRANCH   5   6
BRANCH   5  29
ATOM     29  CB  ILE A   3      20.200  12.260  -5.238  1.00  0.00     0.018 C 
ATOM     30  CG1 ILE A   3      19.642  13.692  -5.172  1.00  0.00     0.010 C 
BRANCH  29  31
ATOM     31  CG2 ILE A   3      20.430  11.699  -3.807  1.00  0.00     0.002 C 
ATOM     32  CD1 ILE A   3      21.817  12.070  -3.296  1.00  0.00     0.004 C 
ENDBRANCH  29  31
ENDBRANCH   5  29
ENDBRANCH   1   5
BRANCH   3  33
ATOM     33  CA  LEU A   4      21.347   8.762  -8.140  1.00  0.00     0.171 C 
BRANCH  33  34
ATOM     34  C   LEU A   4      22.713   9.217  -8.521  1.00  0.00     0.243 C 
ATOM     35  N   ARG A   5      23.822   8.721  -7.785  1.00  0.00    -0.343 N 
ATOM     36  O   LEU A   4      22.877  10.033  -9.468  1.00  0.00    -0.273 OA
ATOM     37  H   UNL     1      23.666   8.031  -7.015  1.00  0.00     0.164 HD
BRANCH  35  38
ATOM     38  CA  ARG A   5      25.185   9.122  -8.073  1.00  0.00     0.171 C 
BRANCH  38  39
ATOM     39  C   ARG A   5      25.900   7.968  -8.685  1.00  0.00     0.243 C 
ATOM     40  N   ASN A   6      25.913   7.864 -10.102  1.00  0.00    -0.341 N 
ATOM     41  O   ARG A   5      26.447   7.087  -7.969  1.00  0.00    -0.273 OA
ATOM     42  H   UNL     1      25.488   8.647 -10.651  1.00  0.00     0.164 HD
BRANCH  40  43
ATOM     43  CA  ASN A   6      26.542   6.751 -10.804  1.00  0.00     0.201 C 
BRANCH  43  44
ATOM     44  C   ASN A   6      27.993   6.642 -10.416  1.00  0.00     0.326 C 
ATOM     45  O   ASN A   6      28.794   7.579 -10.677  1.00  0.00    -0.250 OA
BRANCH  44  46
ATOM     46  OXT ASN A   6      28.451   5.499  -9.768  1.00  0.00    -0.480 OA
ATOM     47  H   UNL     1      29.424   5.409  -9.500  1.00  0.00     0.296 HD
ENDBRANCH  44  46
ENDBRANCH  43  44
BRANCH  43  48
ATOM     48  CB  ASN A   6      26.424   6.947 -12.323  1.00  0.00     0.136 C 
BRANCH  48  49
ATOM     49  CG  ASN A   6      25.010   7.180 -12.773  1.00  0.00     0.220 C 
ATOM     50  ND2 ASN A   6      24.753   8.090 -13.833  1.00  0.00    -0.370 N 
ATOM     51  OD1 ASN A   6      24.053   6.558 -12.243  1.00  0.00    -0.275 OA
ATOM     52  H   UNL     1      25.533   8.600 -14.306  1.00  0.00     0.159 HD
ATOM     53  H   UNL     1      23.775   8.258 -14.156  1.00  0.00     0.159 HD
ENDBRANCH  48  49
ENDBRANCH  43  48
ENDBRANCH  40  43
ENDBRANCH  38  39
BRANCH  38  54
ATOM     54  CB  ARG A   5      25.862   9.605  -6.795  1.00  0.00     0.037 C 
BRANCH  54  55
ATOM     55  CG  ARG A   5      25.165  10.859  -6.269  1.00  0.00     0.024 C 
BRANCH  55  56
ATOM     56  CD  ARG A   5      25.839  11.391  -5.013  1.00  0.00     0.116 C 
BRANCH  56  57
ATOM     57  NE  ARG A   5      25.379  10.686  -3.820  1.00  0.00    -0.357 N 
ATOM     58  CZ  ARG A   5      25.469  11.281  -2.526  1.00  0.00     0.185 C 
ATOM     59  NH2 ARG A   5      26.107  12.546  -2.351  1.00  0.00    -0.370 N 
ATOM     60  H   UNL     1      24.897   9.762  -3.912  1.00  0.00     0.163 HD
ATOM     61  H   UNL     1      26.697  12.982  -3.092  1.00  0.00     0.159 HD
ATOM     62  H   UNL     1      26.079  13.024  -1.423  1.00  0.00     0.159 HD
BRANCH  58  63
ATOM     63  NH1 ARG A   5      24.954  10.672  -1.507  1.00  0.00    -0.270 NA
ATOM     64  H   UNL     1      24.995  11.076  -0.545  1.00  0.00     0.191 HD
ENDBRANCH  58  63
ENDBRANCH  56  57
ENDBRANCH  55  56
ENDBRANCH  54  55
ENDBRANCH  38  54
ENDBRANCH  35  38
ENDBRANCH  33  34
BRANCH  33  65
ATOM     65  CB  LEU A   4      20.654   8.000  -9.272  1.00  0.00     0.038 C 
BRANCH  65  66
ATOM     66  CG  LEU A   4      21.448   6.772  -9.768  1.00  0.00    -0.015 C 
ATOM     67  CD1 LEU A   4      21.762   5.779  -8.639  1.00  0.00     0.007 C 
ATOM     68  CD2 LEU A   4      20.661   6.068 -10.877  1.00  0.00     0.007 C 
ENDBRANCH  65  66
ENDBRANCH  33  65
ENDBRANCH   3  33
TORSDOF 28
