REMARK SMILES CC(C)C[C@H](NC(=O)[C@H](C)NC(=O)[C@H](CC(=O)O)NC(=O)[C@@H](N)CO)C(=O)N[C@@H](CCCNC(=N)N)C(=O)N[C@@H](CC(N)=O)C(=O)O
REMARK SMILES IDX 7 1 8 2 6 3 9 5 10 6 11 7 12 8 13 9 14 11 19 12 20 13 21 14
REMARK SMILES IDX 22 16 23 17 24 20 25 21 15 23 16 24 17 25 18 26 5 28 26 29
REMARK SMILES IDX 28 30 27 31 29 33 37 34 39 35 38 36 40 38 45 39 46 40 47 41
REMARK SMILES IDX 41 43 42 44 43 45 44 46 30 49 31 50 32 51 33 52 34 53 36 54
REMARK SMILES IDX 35 58 4 60 2 61 1 62 3 63
REMARK H PARENT 6 4 11 10 19 15 23 18 23 19 25 22 18 27 28 32 39 37 47 42
REMARK H PARENT 43 47 43 48 33 55 36 56 36 57 35 59
ROOT
ATOM      1  C   ALA A   3      20.040  10.099  -6.459  1.00  0.00     0.242 C 
ATOM      2  O   ALA A   3      20.174   9.197  -5.585  1.00  0.00    -0.273 OA
ATOM      3  N   LEU A   4      20.559   9.923  -7.769  1.00  0.00    -0.343 N 
ATOM      4  H   UNL     1      20.390  10.659  -8.493  1.00  0.00     0.164 HD
ENDROOT
BRANCH   1   5
ATOM      5  CA  ALA A   3      19.329  11.369  -6.139  1.00  0.00     0.168 C 
ATOM      6  CB  ALA A   3      20.171  12.245  -5.220  1.00  0.00     0.041 C 
BRANCH   5   7
ATOM      7  N   ALA A   3      18.085  11.050  -5.479  1.00  0.00    -0.343 N 
ATOM      8  C   ASP A   2      16.875  11.745  -5.740  1.00  0.00     0.243 C 
ATOM      9  O   ASP A   2      16.884  12.784  -6.459  1.00  0.00    -0.273 OA
ATOM     10  H   UNL     1      18.177  10.529  -4.579  1.00  0.00     0.164 HD
BRANCH   8  11
ATOM     11  CA  ASP A   2      15.626  11.284  -5.039  1.00  0.00     0.182 C 
BRANCH  11  12
ATOM     12  N   ASP A   2      14.442  11.728  -5.760  1.00  0.00    -0.342 N 
ATOM     13  C   SER A   1      13.916  13.044  -5.632  1.00  0.00     0.239 C 
ATOM     14  O   SER A   1      14.453  13.861  -4.833  1.00  0.00    -0.273 OA
ATOM     15  H   UNL     1      13.853  11.000  -6.218  1.00  0.00     0.164 HD
BRANCH  13  16
ATOM     16  CA  SER A   1      12.662  13.411  -6.387  1.00  0.00     0.167 C 
BRANCH  16  17
ATOM     17  N   SER A   1      12.457  14.861  -6.396  1.00  0.00    -0.318 NA
ATOM     18  H   UNL     1      13.320  15.337  -6.751  1.00  0.00     0.119 HD
ATOM     19  H   UNL     1      12.288  15.189  -5.417  1.00  0.00     0.119 HD
ENDBRANCH  16  17
BRANCH  16  20
ATOM     20  CB  SER A   1      12.691  12.890  -7.842  1.00  0.00     0.184 C 
BRANCH  20  21
ATOM     21  OG  SER A   1      11.437  13.054  -8.445  1.00  0.00    -0.394 OA
ATOM     22  H   UNL     1      10.843  12.357  -8.063  1.00  0.00     0.210 HD
ENDBRANCH  20  21
ENDBRANCH  16  20
ENDBRANCH  13  16
ENDBRANCH  11  12
BRANCH  11  23
ATOM     23  CB  ASP A   2      15.591   9.741  -4.918  1.00  0.00     0.157 C 
BRANCH  23  24
ATOM     24  CG  ASP A   2      14.430   9.284  -4.096  1.00  0.00     0.305 C 
ATOM     25  OD1 ASP A   2      13.443   8.728  -4.648  1.00  0.00    -0.252 OA
BRANCH  24  26
ATOM     26  OD2 ASP A   2      14.431   9.492  -2.720  1.00  0.00    -0.481 OA
ATOM     27  H   UNL     1      13.647   9.197  -2.150  1.00  0.00     0.296 HD
ENDBRANCH  24  26
ENDBRANCH  23  24
ENDBRANCH  11  23
ENDBRANCH   8  11
ENDBRANCH   5   7
ENDBRANCH   1   5
BRANCH   3  28
ATOM     28  CA  LEU A   4      21.345   8.761  -8.135  1.00  0.00     0.171 C 
BRANCH  28  29
ATOM     29  C   LEU A   4      22.711   9.217  -8.518  1.00  0.00     0.243 C 
ATOM     30  N   ARG A   5      23.821   8.720  -7.785  1.00  0.00    -0.343 N 
ATOM     31  O   LEU A   4      22.875  10.032  -9.466  1.00  0.00    -0.273 OA
ATOM     32  H   UNL     1      23.666   8.029  -7.015  1.00  0.00     0.164 HD
BRANCH  30  33
ATOM     33  CA  ARG A   5      25.184   9.122  -8.073  1.00  0.00     0.171 C 
BRANCH  33  34
ATOM     34  C   ARG A   5      25.899   7.968  -8.685  1.00  0.00     0.243 C 
ATOM     35  N   ASN A   6      25.913   7.864 -10.102  1.00  0.00    -0.341 N 
ATOM     36  O   ARG A   5      26.447   7.087  -7.969  1.00  0.00    -0.273 OA
ATOM     37  H   UNL     1      25.489   8.647 -10.651  1.00  0.00     0.164 HD
BRANCH  35  38
ATOM     38  CA  ASN A   6      26.542   6.751 -10.804  1.00  0.00     0.201 C 
BRANCH  38  39
ATOM     39  C   ASN A   6      27.993   6.642 -10.416  1.00  0.00     0.326 C 
ATOM     40  O   ASN A   6      28.794   7.579 -10.677  1.00  0.00    -0.250 OA
BRANCH  39  41
ATOM     41  OXT ASN A   6      28.451   5.499  -9.768  1.00  0.00    -0.480 OA
ATOM     42  H   UNL     1      29.424   5.409  -9.499  1.00  0.00     0.296 HD
ENDBRANCH  39  41
ENDBRANCH  38  39
BRANCH  38  43
ATOM     43  CB  ASN A   6      26.424   6.947 -12.323  1.00  0.00     0.136 C 
BRANCH  43  44
ATOM     44  CG  ASN A   6      25.010   7.180 -12.773  1.00  0.00     0.220 C 
ATOM     45  ND2 ASN A   6      24.753   8.090 -13.833  1.00  0.00    -0.370 N 
ATOM     46  OD1 ASN A   6      24.053   6.558 -12.243  1.00  0.00    -0.275 OA
ATOM     47  H   UNL     1      25.533   8.600 -14.306  1.00  0.00     0.159 HD
ATOM     48  H   UNL     1      23.775   8.258 -14.156  1.00  0.00     0.159 HD
ENDBRANCH  43  44
ENDBRANCH  38  43
ENDBRANCH  35  38
ENDBRANCH  33  34
BRANCH  33  49
ATOM     49  CB  ARG A   5      25.862   9.605  -6.796  1.00  0.00     0.037 C 
BRANCH  49  50
ATOM     50  CG  ARG A   5      25.166  10.860  -6.270  1.00  0.00     0.024 C 
BRANCH  50  51
ATOM     51  CD  ARG A   5      25.842  11.390  -5.014  1.00  0.00     0.116 C 
BRANCH  51  52
ATOM     52  NE  ARG A   5      25.378  10.687  -3.820  1.00  0.00    -0.357 N 
ATOM     53  CZ  ARG A   5      25.470  11.282  -2.526  1.00  0.00     0.185 C 
ATOM     54  NH2 ARG A   5      26.109  12.546  -2.351  1.00  0.00    -0.370 N 
ATOM     55  H   UNL     1      24.899   9.761  -3.912  1.00  0.00     0.163 HD
ATOM     56  H   UNL     1      26.699  12.981  -3.092  1.00  0.00     0.159 HD
ATOM     57  H   UNL     1      26.084  13.022  -1.422  1.00  0.00     0.159 HD
BRANCH  53  58
ATOM     58  NH1 ARG A   5      24.956  10.671  -1.506  1.00  0.00    -0.270 NA
ATOM     59  H   UNL     1      24.999  11.075  -0.544  1.00  0.00     0.191 HD
ENDBRANCH  53  58
ENDBRANCH  51  52
ENDBRANCH  50  51
ENDBRANCH  49  50
ENDBRANCH  33  49
ENDBRANCH  30  33
ENDBRANCH  28  29
BRANCH  28  60
ATOM     60  CB  LEU A   4      20.653   7.999  -9.269  1.00  0.00     0.038 C 
BRANCH  60  61
ATOM     61  CG  LEU A   4      21.448   6.772  -9.767  1.00  0.00    -0.015 C 
ATOM     62  CD1 LEU A   4      21.762   5.779  -8.638  1.00  0.00     0.007 C 
ATOM     63  CD2 LEU A   4      20.662   6.068 -10.877  1.00  0.00     0.007 C 
ENDBRANCH  60  61
ENDBRANCH  28  60
ENDBRANCH   3  28
TORSDOF 27
