REMARK SMILES CC(C)C[C@H](NC(=O)[C@H](CCC(N)=O)NC(=O)[C@H](CC(C)C)NC(=O)[C@@H](N)CO)C(=O)N[C@@H](CCCNC(=N)N)C(=O)N[C@@H](CC(N)=O)C(=O)O
REMARK SMILES IDX 7 1 8 2 6 3 9 5 15 6 16 7 17 8 18 10 23 11 24 12 25 13 26 15
REMARK SMILES IDX 27 16 28 19 29 20 19 22 20 23 21 24 22 25 10 26 11 27 12 28
REMARK SMILES IDX 13 29 14 30 5 33 30 34 32 35 31 36 33 38 41 39 43 40 42 41
REMARK SMILES IDX 44 43 49 44 50 45 51 46 45 48 46 49 47 50 48 51 34 54 35 55
REMARK SMILES IDX 36 56 37 57 38 58 40 59 39 63 4 65 2 66 1 67 3 68
REMARK H PARENT 6 4 15 9 23 14 27 17 27 18 29 21 13 31 13 32 32 37 43 42 51 47
REMARK H PARENT 47 52 47 53 37 60 40 61 40 62 39 64
ROOT
ATOM      1  C   GLN A   3      20.033  10.083  -6.466  1.00  0.00     0.243 C 
ATOM      2  O   GLN A   3      20.154   9.165  -5.609  1.00  0.00    -0.273 OA
ATOM      3  N   LEU A   4      20.563   9.922  -7.773  1.00  0.00    -0.343 N 
ATOM      4  H   UNL     1      20.402  10.665  -8.491  1.00  0.00     0.164 HD
ENDROOT
BRANCH   1   5
ATOM      5  CA  GLN A   3      19.327  11.355  -6.133  1.00  0.00     0.171 C 
BRANCH   5   6
ATOM      6  N   GLN A   3      18.078  11.044  -5.482  1.00  0.00    -0.343 N 
ATOM      7  C   LEU A   2      16.874  11.747  -5.744  1.00  0.00     0.243 C 
ATOM      8  O   LEU A   2      16.889  12.786  -6.461  1.00  0.00    -0.273 OA
ATOM      9  H   UNL     1      18.150  10.500  -4.596  1.00  0.00     0.164 HD
BRANCH   7  10
ATOM     10  CA  LEU A   2      15.626  11.293  -5.043  1.00  0.00     0.171 C 
BRANCH  10  11
ATOM     11  N   LEU A   2      14.448  11.738  -5.771  1.00  0.00    -0.343 N 
ATOM     12  C   SER A   1      13.913  13.049  -5.637  1.00  0.00     0.239 C 
ATOM     13  O   SER A   1      14.442  13.866  -4.835  1.00  0.00    -0.273 OA
ATOM     14  H   UNL     1      13.887  11.015  -6.269  1.00  0.00     0.164 HD
BRANCH  12  15
ATOM     15  CA  SER A   1      12.661  13.412  -6.391  1.00  0.00     0.167 C 
BRANCH  15  16
ATOM     16  N   SER A   1      12.471  14.864  -6.374  1.00  0.00    -0.318 NA
ATOM     17  H   UNL     1      13.204  15.321  -6.966  1.00  0.00     0.119 HD
ATOM     18  H   UNL     1      11.540  15.091  -6.793  1.00  0.00     0.119 HD
ENDBRANCH  15  16
BRANCH  15  19
ATOM     19  CB  SER A   1      12.685  12.887  -7.850  1.00  0.00     0.184 C 
BRANCH  19  20
ATOM     20  OG  SER A   1      11.432  13.053  -8.453  1.00  0.00    -0.394 OA
ATOM     21  H   UNL     1      10.830  12.370  -8.055  1.00  0.00     0.210 HD
ENDBRANCH  19  20
ENDBRANCH  15  19
ENDBRANCH  12  15
ENDBRANCH  10  11
BRANCH  10  22
ATOM     22  CB  LEU A   2      15.579   9.746  -4.921  1.00  0.00     0.038 C 
BRANCH  22  23
ATOM     23  CG  LEU A   2      14.401   9.241  -4.066  1.00  0.00    -0.015 C 
ATOM     24  CD1 LEU A   2      14.608   9.529  -2.570  1.00  0.00     0.007 C 
ATOM     25  CD2 LEU A   2      14.206   7.733  -4.278  1.00  0.00     0.007 C 
ENDBRANCH  22  23
ENDBRANCH  10  22
ENDBRANCH   7  10
ENDBRANCH   5   6
BRANCH   5  26
ATOM     26  CB  GLN A   3      20.184  12.254  -5.236  1.00  0.00     0.045 C 
BRANCH  26  27
ATOM     27  CG  GLN A   3      20.399  11.721  -3.803  1.00  0.00     0.102 C 
BRANCH  27  28
ATOM     28  CD  GLN A   3      21.773  12.053  -3.324  1.00  0.00     0.217 C 
ATOM     29  NE2 GLN A   3      22.131  13.396  -2.999  1.00  0.00    -0.370 N 
ATOM     30  OE1 GLN A   3      22.626  11.136  -3.229  1.00  0.00    -0.275 OA
ATOM     31  H   UNL     1      21.432  14.167  -3.082  1.00  0.00     0.159 HD
ATOM     32  H   UNL     1      23.099  13.620  -2.678  1.00  0.00     0.159 HD
ENDBRANCH  27  28
ENDBRANCH  26  27
ENDBRANCH   5  26
ENDBRANCH   1   5
BRANCH   3  33
ATOM     33  CA  LEU A   4      21.348   8.761  -8.140  1.00  0.00     0.171 C 
BRANCH  33  34
ATOM     34  C   LEU A   4      22.713   9.217  -8.521  1.00  0.00     0.243 C 
ATOM     35  N   ARG A   5      23.822   8.721  -7.785  1.00  0.00    -0.343 N 
ATOM     36  O   LEU A   4      22.877  10.033  -9.468  1.00  0.00    -0.273 OA
ATOM     37  H   UNL     1      23.667   8.031  -7.015  1.00  0.00     0.164 HD
BRANCH  35  38
ATOM     38  CA  ARG A   5      25.185   9.123  -8.073  1.00  0.00     0.171 C 
BRANCH  38  39
ATOM     39  C   ARG A   5      25.900   7.968  -8.685  1.00  0.00     0.243 C 
ATOM     40  N   ASN A   6      25.913   7.865 -10.102  1.00  0.00    -0.341 N 
ATOM     41  O   ARG A   5      26.447   7.087  -7.969  1.00  0.00    -0.273 OA
ATOM     42  H   UNL     1      25.489   8.647 -10.651  1.00  0.00     0.164 HD
BRANCH  40  43
ATOM     43  CA  ASN A   6      26.542   6.751 -10.804  1.00  0.00     0.201 C 
BRANCH  43  44
ATOM     44  C   ASN A   6      27.993   6.642 -10.416  1.00  0.00     0.326 C 
ATOM     45  O   ASN A   6      28.794   7.579 -10.677  1.00  0.00    -0.250 OA
BRANCH  44  46
ATOM     46  OXT ASN A   6      28.451   5.499  -9.768  1.00  0.00    -0.480 OA
ATOM     47  H   UNL     1      29.424   5.409  -9.499  1.00  0.00     0.296 HD
ENDBRANCH  44  46
ENDBRANCH  43  44
BRANCH  43  48
ATOM     48  CB  ASN A   6      26.424   6.947 -12.323  1.00  0.00     0.136 C 
BRANCH  48  49
ATOM     49  CG  ASN A   6      25.010   7.180 -12.773  1.00  0.00     0.220 C 
ATOM     50  ND2 ASN A   6      24.753   8.090 -13.833  1.00  0.00    -0.370 N 
ATOM     51  OD1 ASN A   6      24.053   6.558 -12.243  1.00  0.00    -0.275 OA
ATOM     52  H   UNL     1      23.775   8.258 -14.156  1.00  0.00     0.159 HD
ATOM     53  H   UNL     1      25.533   8.600 -14.306  1.00  0.00     0.159 HD
ENDBRANCH  48  49
ENDBRANCH  43  48
ENDBRANCH  40  43
ENDBRANCH  38  39
BRANCH  38  54
ATOM     54  CB  ARG A   5      25.863   9.606  -6.796  1.00  0.00     0.037 C 
BRANCH  54  55
ATOM     55  CG  ARG A   5      25.163  10.858  -6.266  1.00  0.00     0.024 C 
BRANCH  55  56
ATOM     56  CD  ARG A   5      25.843  11.394  -5.015  1.00  0.00     0.116 C 
BRANCH  56  57
ATOM     57  NE  ARG A   5      25.406  10.677  -3.820  1.00  0.00    -0.357 N 
ATOM     58  CZ  ARG A   5      25.487  11.276  -2.524  1.00  0.00     0.185 C 
ATOM     59  NH2 ARG A   5      26.106  12.548  -2.350  1.00  0.00    -0.370 N 
ATOM     60  H   UNL     1      24.967   9.733  -3.914  1.00  0.00     0.163 HD
ATOM     61  H   UNL     1      26.069  13.019  -1.419  1.00  0.00     0.159 HD
ATOM     62  H   UNL     1      26.689  12.993  -3.091  1.00  0.00     0.159 HD
BRANCH  58  63
ATOM     63  NH1 ARG A   5      24.980  10.674  -1.496  1.00  0.00    -0.270 NA
ATOM     64  H   UNL     1      24.511   9.744  -1.577  1.00  0.00     0.191 HD
ENDBRANCH  58  63
ENDBRANCH  56  57
ENDBRANCH  55  56
ENDBRANCH  54  55
ENDBRANCH  38  54
ENDBRANCH  35  38
ENDBRANCH  33  34
BRANCH  33  65
ATOM     65  CB  LEU A   4      20.655   8.000  -9.272  1.00  0.00     0.038 C 
BRANCH  65  66
ATOM     66  CG  LEU A   4      21.448   6.771  -9.769  1.00  0.00    -0.015 C 
ATOM     67  CD1 LEU A   4      21.762   5.779  -8.639  1.00  0.00     0.007 C 
ATOM     68  CD2 LEU A   4      20.661   6.067 -10.877  1.00  0.00     0.007 C 
ENDBRANCH  65  66
ENDBRANCH  33  65
ENDBRANCH   3  33
TORSDOF 29
