REMARK SMILES CC[C@H](C)[C@H](NC(=O)[C@@H](N)CO)C(=O)N[C@@H](CCC(N)=O)C(=O)N[C@@H](CC(C)C)C(=O)N[C@@H](CCCNC(=N)N)C(=O)N[C@@H](CC(N)=O)C(=O)O
REMARK SMILES IDX 22 1 23 2 24 3 16 5 15 6 13 7 14 8 5 10 6 11 7 12 8 13 9 15
REMARK SMILES IDX 10 16 11 19 12 20 3 22 4 23 2 24 1 25 17 26 18 27 19 28
REMARK SMILES IDX 20 29 21 30 25 33 30 34 32 35 31 36 33 38 41 39 43 40 42 41
REMARK SMILES IDX 44 43 49 44 50 45 51 46 45 48 46 49 47 50 48 51 34 54 35 55
REMARK SMILES IDX 36 56 37 57 38 58 40 59 39 63 26 65 27 66 28 67 29 68
REMARK H PARENT 24 4 15 9 6 14 10 17 10 18 12 21 20 31 20 32 32 37 43 42 51 47
REMARK H PARENT 47 52 47 53 37 60 40 61 40 62 39 64
ROOT
ATOM      1  C   GLN A   3      20.033  10.086  -6.468  1.00  0.00     0.243 C 
ATOM      2  O   GLN A   3      20.152   9.167  -5.610  1.00  0.00    -0.273 OA
ATOM      3  N   LEU A   4      20.562   9.923  -7.774  1.00  0.00    -0.343 N 
ATOM      4  H   UNL     1      20.400  10.665  -8.493  1.00  0.00     0.164 HD
ENDROOT
BRANCH   1   5
ATOM      5  CA  GLN A   3      19.329  11.360  -6.135  1.00  0.00     0.171 C 
BRANCH   5   6
ATOM      6  N   GLN A   3      18.080  11.055  -5.483  1.00  0.00    -0.342 N 
ATOM      7  C   ILE A   2      16.872  11.750  -5.751  1.00  0.00     0.243 C 
ATOM      8  O   ILE A   2      16.883  12.791  -6.465  1.00  0.00    -0.273 OA
ATOM      9  H   UNL     1      18.147  10.469  -4.625  1.00  0.00     0.164 HD
BRANCH   7  10
ATOM     10  CA  ILE A   2      15.621  11.277  -5.063  1.00  0.00     0.174 C 
BRANCH  10  11
ATOM     11  N   ILE A   2      14.423  11.731  -5.757  1.00  0.00    -0.343 N 
ATOM     12  C   SER A   1      13.914  13.052  -5.635  1.00  0.00     0.239 C 
ATOM     13  O   SER A   1      14.461  13.868  -4.842  1.00  0.00    -0.273 OA
ATOM     14  H   UNL     1      13.755  11.018  -6.109  1.00  0.00     0.164 HD
BRANCH  12  15
ATOM     15  CA  SER A   1      12.656  13.419  -6.384  1.00  0.00     0.167 C 
BRANCH  15  16
ATOM     16  N   SER A   1      12.474  14.872  -6.383  1.00  0.00    -0.318 NA
ATOM     17  H   UNL     1      11.569  15.097  -6.858  1.00  0.00     0.119 HD
ATOM     18  H   UNL     1      12.345  15.189  -5.395  1.00  0.00     0.119 HD
ENDBRANCH  15  16
BRANCH  15  19
ATOM     19  CB  SER A   1      12.700  12.898  -7.840  1.00  0.00     0.184 C 
BRANCH  19  20
ATOM     20  OG  SER A   1      11.442  13.031  -8.445  1.00  0.00    -0.394 OA
ATOM     21  H   UNL     1      11.449  13.888  -8.946  1.00  0.00     0.210 HD
ENDBRANCH  19  20
ENDBRANCH  15  19
ENDBRANCH  12  15
ENDBRANCH  10  11
BRANCH  10  22
ATOM     22  CB  ILE A   2      15.603   9.724  -4.873  1.00  0.00     0.018 C 
ATOM     23  CG1 ILE A   2      14.373   9.247  -4.103  1.00  0.00     0.010 C 
BRANCH  22  24
ATOM     24  CG2 ILE A   2      15.896   8.847  -6.128  1.00  0.00     0.002 C 
ATOM     25  CD1 ILE A   2      14.954   9.035  -7.315  1.00  0.00     0.004 C 
ENDBRANCH  22  24
ENDBRANCH  10  22
ENDBRANCH   7  10
ENDBRANCH   5   6
BRANCH   5  26
ATOM     26  CB  GLN A   3      20.188  12.255  -5.237  1.00  0.00     0.045 C 
BRANCH  26  27
ATOM     27  CG  GLN A   3      20.399  11.722  -3.803  1.00  0.00     0.102 C 
BRANCH  27  28
ATOM     28  CD  GLN A   3      21.774  12.049  -3.320  1.00  0.00     0.217 C 
ATOM     29  NE2 GLN A   3      22.160  13.400  -3.069  1.00  0.00    -0.370 N 
ATOM     30  OE1 GLN A   3      22.598  11.117  -3.141  1.00  0.00    -0.275 OA
ATOM     31  H   UNL     1      23.127  13.619  -2.742  1.00  0.00     0.159 HD
ATOM     32  H   UNL     1      21.483  14.182  -3.213  1.00  0.00     0.159 HD
ENDBRANCH  27  28
ENDBRANCH  26  27
ENDBRANCH   5  26
ENDBRANCH   1   5
BRANCH   3  33
ATOM     33  CA  LEU A   4      21.347   8.761  -8.140  1.00  0.00     0.171 C 
BRANCH  33  34
ATOM     34  C   LEU A   4      22.713   9.217  -8.521  1.00  0.00     0.243 C 
ATOM     35  N   ARG A   5      23.822   8.721  -7.785  1.00  0.00    -0.343 N 
ATOM     36  O   LEU A   4      22.877  10.033  -9.468  1.00  0.00    -0.273 OA
ATOM     37  H   UNL     1      23.666   8.031  -7.015  1.00  0.00     0.164 HD
BRANCH  35  38
ATOM     38  CA  ARG A   5      25.185   9.122  -8.072  1.00  0.00     0.171 C 
BRANCH  38  39
ATOM     39  C   ARG A   5      25.900   7.968  -8.685  1.00  0.00     0.243 C 
ATOM     40  N   ASN A   6      25.913   7.865 -10.102  1.00  0.00    -0.341 N 
ATOM     41  O   ARG A   5      26.447   7.087  -7.969  1.00  0.00    -0.273 OA
ATOM     42  H   UNL     1      25.488   8.648 -10.651  1.00  0.00     0.164 HD
BRANCH  40  43
ATOM     43  CA  ASN A   6      26.542   6.751 -10.804  1.00  0.00     0.201 C 
BRANCH  43  44
ATOM     44  C   ASN A   6      27.992   6.642 -10.415  1.00  0.00     0.326 C 
ATOM     45  O   ASN A   6      28.794   7.579 -10.677  1.00  0.00    -0.250 OA
BRANCH  44  46
ATOM     46  OXT ASN A   6      28.451   5.499  -9.768  1.00  0.00    -0.480 OA
ATOM     47  H   UNL     1      29.424   5.409  -9.499  1.00  0.00     0.296 HD
ENDBRANCH  44  46
ENDBRANCH  43  44
BRANCH  43  48
ATOM     48  CB  ASN A   6      26.424   6.947 -12.323  1.00  0.00     0.136 C 
BRANCH  48  49
ATOM     49  CG  ASN A   6      25.010   7.181 -12.773  1.00  0.00     0.220 C 
ATOM     50  ND2 ASN A   6      24.753   8.090 -13.833  1.00  0.00    -0.370 N 
ATOM     51  OD1 ASN A   6      24.053   6.558 -12.243  1.00  0.00    -0.275 OA
ATOM     52  H   UNL     1      23.775   8.258 -14.156  1.00  0.00     0.159 HD
ATOM     53  H   UNL     1      25.533   8.600 -14.306  1.00  0.00     0.159 HD
ENDBRANCH  48  49
ENDBRANCH  43  48
ENDBRANCH  40  43
ENDBRANCH  38  39
BRANCH  38  54
ATOM     54  CB  ARG A   5      25.863   9.606  -6.795  1.00  0.00     0.037 C 
BRANCH  54  55
ATOM     55  CG  ARG A   5      25.162  10.857  -6.265  1.00  0.00     0.024 C 
BRANCH  55  56
ATOM     56  CD  ARG A   5      25.842  11.393  -5.014  1.00  0.00     0.116 C 
BRANCH  56  57
ATOM     57  NE  ARG A   5      25.401  10.681  -3.817  1.00  0.00    -0.357 N 
ATOM     58  CZ  ARG A   5      25.488  11.279  -2.524  1.00  0.00     0.185 C 
ATOM     59  NH2 ARG A   5      26.110  12.552  -2.352  1.00  0.00    -0.370 N 
ATOM     60  H   UNL     1      24.949   9.742  -3.905  1.00  0.00     0.163 HD
ATOM     61  H   UNL     1      26.696  12.991  -3.094  1.00  0.00     0.159 HD
ATOM     62  H   UNL     1      26.072  13.034  -1.426  1.00  0.00     0.159 HD
BRANCH  58  63
ATOM     63  NH1 ARG A   5      24.976  10.668  -1.503  1.00  0.00    -0.270 NA
ATOM     64  H   UNL     1      25.011  11.076  -0.542  1.00  0.00     0.191 HD
ENDBRANCH  58  63
ENDBRANCH  56  57
ENDBRANCH  55  56
ENDBRANCH  54  55
ENDBRANCH  38  54
ENDBRANCH  35  38
ENDBRANCH  33  34
BRANCH  33  65
ATOM     65  CB  LEU A   4      20.654   8.000  -9.272  1.00  0.00     0.038 C 
BRANCH  65  66
ATOM     66  CG  LEU A   4      21.448   6.771  -9.768  1.00  0.00    -0.015 C 
ATOM     67  CD1 LEU A   4      21.762   5.779  -8.639  1.00  0.00     0.007 C 
ATOM     68  CD2 LEU A   4      20.661   6.067 -10.877  1.00  0.00     0.007 C 
ENDBRANCH  65  66
ENDBRANCH  33  65
ENDBRANCH   3  33
TORSDOF 29
