REMARK SMILES N=C(N)NCCC[C@H](NC(=O)[C@H](Cc1ccccc1)NC(=O)[C@H](CCC(N)=O)NC(=O)[C@H](Cc1ccccc1)NC(=O)[C@@H](N)CO)C(=O)N[C@@H](CC(N)=O)C(=O)O
REMARK SMILES IDX 21 1 22 2 20 3 23 5 29 6 30 7 31 8 32 10 40 11 41 12 42 13
REMARK SMILES IDX 43 15 44 16 45 19 46 20 33 22 34 23 35 24 39 25 36 26 38 27
REMARK SMILES IDX 37 28 24 29 25 30 26 31 27 32 28 33 12 36 10 37 9 38 11 39
REMARK SMILES IDX 8 41 47 42 49 43 48 44 50 46 55 47 56 48 57 49 51 51 52 52
REMARK SMILES IDX 53 53 54 54 7 57 6 58 5 59 4 60 2 61 3 62 1 66 13 68 14 69
REMARK SMILES IDX 15 70 19 71 16 72 18 73 17 74
REMARK H PARENT 20 4 29 9 40 14 44 17 44 18 46 21 27 34 27 35 9 40 49 45 57 50
REMARK H PARENT 53 55 53 56 4 63 3 64 3 65 1 67
ROOT
ATOM      1  C   GLN A   3       1.304   0.010  -1.457  1.00  0.00     0.243 C 
ATOM      2  O   GLN A   3       1.768  -0.998  -2.057  1.00  0.00    -0.273 OA
ATOM      3  N   PHE A   4       0.106  -0.104  -0.678  1.00  0.00    -0.342 N 
ATOM      4  H   UNL     1      -0.301   0.770  -0.284  1.00  0.00     0.164 HD
ENDROOT
BRANCH   1   5
ATOM      5  CA  GLN A   3       1.992   1.342  -1.583  1.00  0.00     0.171 C 
BRANCH   5   6
ATOM      6  N   GLN A   3       3.387   1.164  -2.000  1.00  0.00    -0.342 N 
ATOM      7  C   PHE A   2       4.410   0.770  -1.074  1.00  0.00     0.243 C 
ATOM      8  O   PHE A   2       4.192   0.807   0.168  1.00  0.00    -0.273 OA
ATOM      9  H   UNL     1       3.616   1.146  -3.020  1.00  0.00     0.164 HD
BRANCH   7  10
ATOM     10  CA  PHE A   2       5.738   0.275  -1.582  1.00  0.00     0.175 C 
BRANCH  10  11
ATOM     11  N   PHE A   2       6.836   0.780  -0.751  1.00  0.00    -0.343 N 
ATOM     12  C   SER A   1       7.126   2.184  -0.653  1.00  0.00     0.239 C 
ATOM     13  O   SER A   1       6.429   3.014  -1.293  1.00  0.00    -0.273 OA
ATOM     14  H   UNL     1       7.477   0.112  -0.280  1.00  0.00     0.164 HD
BRANCH  12  15
ATOM     15  CA  SER A   1       8.242   2.693   0.226  1.00  0.00     0.167 C 
BRANCH  15  16
ATOM     16  N   SER A   1       7.971   2.411   1.639  1.00  0.00    -0.318 NA
ATOM     17  H   UNL     1       7.116   2.948   1.930  1.00  0.00     0.119 HD
ATOM     18  H   UNL     1       7.766   1.391   1.764  1.00  0.00     0.119 HD
ENDBRANCH  15  16
BRANCH  15  19
ATOM     19  CB  SER A   1       9.593   2.099  -0.194  1.00  0.00     0.184 C 
BRANCH  19  20
ATOM     20  OG  SER A   1      10.639   2.781   0.444  1.00  0.00    -0.394 OA
ATOM     21  H   UNL     1      10.712   2.403   1.356  1.00  0.00     0.210 HD
ENDBRANCH  19  20
ENDBRANCH  15  19
ENDBRANCH  12  15
ENDBRANCH  10  11
BRANCH  10  22
ATOM     22  CB  PHE A   2       5.759  -1.267  -1.700  1.00  0.00     0.070 C 
BRANCH  22  23
ATOM     23  CG  PHE A   2       5.630  -2.001  -0.382  1.00  0.00    -0.045 A 
ATOM     24  CD1 PHE A   2       4.360  -2.243   0.173  1.00  0.00     0.004 A 
ATOM     25  CD2 PHE A   2       6.770  -2.469   0.297  1.00  0.00     0.004 A 
ATOM     26  CE1 PHE A   2       4.236  -2.925   1.385  1.00  0.00     0.000 A 
ATOM     27  CE2 PHE A   2       6.640  -3.150   1.514  1.00  0.00     0.000 A 
ATOM     28  CZ  PHE A   2       5.374  -3.383   2.050  1.00  0.00     0.000 A 
ENDBRANCH  22  23
ENDBRANCH  10  22
ENDBRANCH   7  10
ENDBRANCH   5   6
BRANCH   5  29
ATOM     29  CB  GLN A   3       1.237   2.309  -2.524  1.00  0.00     0.045 C 
BRANCH  29  30
ATOM     30  CG  GLN A   3       0.928   1.769  -3.937  1.00  0.00     0.102 C 
BRANCH  30  31
ATOM     31  CD  GLN A   3      -0.237   0.823  -3.948  1.00  0.00     0.217 C 
ATOM     32  NE2 GLN A   3      -0.073  -0.520  -4.411  1.00  0.00    -0.370 N 
ATOM     33  OE1 GLN A   3      -1.367   1.209  -3.539  1.00  0.00    -0.275 OA
ATOM     34  H   UNL     1      -0.863  -1.202  -4.336  1.00  0.00     0.159 HD
ATOM     35  H   UNL     1       0.842  -0.852  -4.802  1.00  0.00     0.159 HD
ENDBRANCH  30  31
ENDBRANCH  29  30
ENDBRANCH   5  29
ENDBRANCH   1   5
BRANCH   3  36
ATOM     36  CA  PHE A   4      -0.509  -1.384  -0.325  1.00  0.00     0.175 C 
BRANCH  36  37
ATOM     37  C   PHE A   4      -1.960  -1.391  -0.735  1.00  0.00     0.243 C 
ATOM     38  N   ARG A   5      -2.907  -0.474  -0.162  1.00  0.00    -0.343 N 
ATOM     39  O   PHE A   4      -2.321  -2.167  -1.668  1.00  0.00    -0.273 OA
ATOM     40  H   UNL     1      -2.579   0.313   0.431  1.00  0.00     0.164 HD
BRANCH  38  41
ATOM     41  CA  ARG A   5      -4.351  -0.624  -0.349  1.00  0.00     0.171 C 
BRANCH  41  42
ATOM     42  C   ARG A   5      -4.924   0.656  -0.906  1.00  0.00     0.243 C 
ATOM     43  N   ASN A   6      -5.602   1.626  -0.082  1.00  0.00    -0.341 N 
ATOM     44  O   ARG A   5      -4.768   0.876  -2.139  1.00  0.00    -0.273 OA
ATOM     45  H   UNL     1      -5.670   1.468   0.947  1.00  0.00     0.164 HD
BRANCH  43  46
ATOM     46  CA  ASN A   6      -6.247   2.826  -0.624  1.00  0.00     0.201 C 
BRANCH  46  47
ATOM     47  C   ASN A   6      -5.606   4.052  -0.036  1.00  0.00     0.326 C 
ATOM     48  O   ASN A   6      -5.541   4.201   1.216  1.00  0.00    -0.250 OA
BRANCH  47  49
ATOM     49  OXT ASN A   6      -5.087   5.029  -0.881  1.00  0.00    -0.480 OA
ATOM     50  H   UNL     1      -4.638   5.859  -0.515  1.00  0.00     0.296 HD
ENDBRANCH  47  49
ENDBRANCH  46  47
BRANCH  46  51
ATOM     51  CB  ASN A   6      -7.756   2.781  -0.337  1.00  0.00     0.136 C 
BRANCH  51  52
ATOM     52  CG  ASN A   6      -8.487   3.921  -0.982  1.00  0.00     0.220 C 
ATOM     53  ND2 ASN A   6      -9.267   4.821  -0.195  1.00  0.00    -0.370 N 
ATOM     54  OD1 ASN A   6      -8.416   4.081  -2.227  1.00  0.00    -0.275 OA
ATOM     55  H   UNL     1      -9.355   4.691   0.838  1.00  0.00     0.159 HD
ATOM     56  H   UNL     1      -9.751   5.634  -0.640  1.00  0.00     0.159 HD
ENDBRANCH  51  52
ENDBRANCH  46  51
ENDBRANCH  43  46
ENDBRANCH  41  42
BRANCH  41  57
ATOM     57  CB  ARG A   5      -5.029  -1.095   0.955  1.00  0.00     0.037 C 
BRANCH  57  58
ATOM     58  CG  ARG A   5      -4.586  -2.502   1.410  1.00  0.00     0.024 C 
BRANCH  58  59
ATOM     59  CD  ARG A   5      -4.991  -3.618   0.440  1.00  0.00     0.116 C 
BRANCH  59  60
ATOM     60  NE  ARG A   5      -4.782  -4.938   1.046  1.00  0.00    -0.357 N 
ATOM     61  CZ  ARG A   5      -5.702  -5.587   1.940  1.00  0.00     0.185 C 
ATOM     62  NH2 ARG A   5      -5.426  -6.915   2.373  1.00  0.00    -0.370 N 
ATOM     63  H   UNL     1      -3.919  -5.459   0.768  1.00  0.00     0.163 HD
ATOM     64  H   UNL     1      -4.557  -7.406   2.068  1.00  0.00     0.159 HD
ATOM     65  H   UNL     1      -6.097  -7.430   2.988  1.00  0.00     0.159 HD
BRANCH  61  66
ATOM     66  NH1 ARG A   5      -6.794  -5.009   2.335  1.00  0.00    -0.270 NA
ATOM     67  H   UNL     1      -7.075  -4.051   2.059  1.00  0.00     0.191 HD
ENDBRANCH  61  66
ENDBRANCH  59  60
ENDBRANCH  58  59
ENDBRANCH  57  58
ENDBRANCH  41  57
ENDBRANCH  38  41
ENDBRANCH  36  37
BRANCH  36  68
ATOM     68  CB  PHE A   4      -0.288  -1.738   1.170  1.00  0.00     0.070 C 
BRANCH  68  69
ATOM     69  CG  PHE A   4      -0.260  -0.555   2.108  1.00  0.00    -0.045 A 
ATOM     70  CD1 PHE A   4      -1.405  -0.186   2.833  1.00  0.00     0.004 A 
ATOM     71  CD2 PHE A   4       0.926   0.179   2.283  1.00  0.00     0.004 A 
ATOM     72  CE1 PHE A   4      -1.380   0.933   3.673  1.00  0.00     0.000 A 
ATOM     73  CE2 PHE A   4       0.949   1.289   3.135  1.00  0.00     0.000 A 
ATOM     74  CZ  PHE A   4      -0.203   1.666   3.830  1.00  0.00     0.000 A 
ENDBRANCH  68  69
ENDBRANCH  36  68
ENDBRANCH   3  36
TORSDOF 29
