REMARK SMILES CC(C)C[C@H](NC(=O)[C@H](C)NC(=O)[C@H](Cc1ccccc1)NC(=O)[C@@H](N)CO)C(=O)N[C@@H](CCCNC(=N)N)C(=O)N[C@@H](C)C(=O)O
REMARK SMILES IDX 7 1 8 2 6 3 9 5 10 6 11 7 12 8 13 9 14 11 22 12 23 13 24 14
REMARK SMILES IDX 25 16 26 17 27 20 28 21 15 23 16 24 17 25 21 26 18 27 20 28
REMARK SMILES IDX 19 29 5 30 29 31 31 32 30 33 32 35 40 36 42 37 41 38 43 40
REMARK SMILES IDX 44 41 45 42 46 43 47 44 33 46 34 47 35 48 36 49 37 50 39 51
REMARK SMILES IDX 38 55 4 57 2 58 1 59 3 60
REMARK H PARENT 6 4 11 10 22 15 26 18 26 19 28 22 31 34 42 39 47 45 36 52
REMARK H PARENT 39 53 39 54 38 56
ROOT
ATOM      1  C   ALA A   3       0.657   0.696   0.748  1.00  0.00     0.242 C 
ATOM      2  O   ALA A   3       1.226   1.276  -0.218  1.00  0.00    -0.273 OA
ATOM      3  N   LEU A   4      -0.614   0.058   0.550  1.00  0.00    -0.343 N 
ATOM      4  H   UNL     1      -1.111  -0.334   1.381  1.00  0.00     0.164 HD
ENDROOT
BRANCH   1   5
ATOM      5  CA  ALA A   3       1.295   0.712   2.114  1.00  0.00     0.168 C 
ATOM      6  CB  ALA A   3       0.535   1.660   3.050  1.00  0.00     0.041 C 
BRANCH   5   7
ATOM      7  N   ALA A   3       2.698   1.127   2.018  1.00  0.00    -0.343 N 
ATOM      8  C   PHE A   2       3.717   0.286   1.456  1.00  0.00     0.243 C 
ATOM      9  O   PHE A   2       3.467  -0.935   1.228  1.00  0.00    -0.273 OA
ATOM     10  H   UNL     1       2.953   2.108   2.263  1.00  0.00     0.164 HD
BRANCH   8  11
ATOM     11  CA  PHE A   2       5.072   0.882   1.126  1.00  0.00     0.175 C 
BRANCH  11  12
ATOM     12  N   PHE A   2       6.118  -0.148   0.997  1.00  0.00    -0.343 N 
ATOM     13  C   SER A   1       6.199  -1.105  -0.076  1.00  0.00     0.239 C 
ATOM     14  O   SER A   1       5.275  -1.187  -0.933  1.00  0.00    -0.273 OA
ATOM     15  H   UNL     1       6.883  -0.152   1.710  1.00  0.00     0.164 HD
BRANCH  13  16
ATOM     16  CA  SER A   1       7.386  -2.029  -0.188  1.00  0.00     0.167 C 
BRANCH  16  17
ATOM     17  N   SER A   1       8.623  -1.244  -0.131  1.00  0.00    -0.318 NA
ATOM     18  H   UNL     1       8.625  -0.580  -0.938  1.00  0.00     0.119 HD
ATOM     19  H   UNL     1       9.428  -1.888  -0.301  1.00  0.00     0.119 HD
ENDBRANCH  16  17
BRANCH  16  20
ATOM     20  CB  SER A   1       7.346  -3.066   0.949  1.00  0.00     0.184 C 
BRANCH  20  21
ATOM     21  OG  SER A   1       8.353  -4.031   0.780  1.00  0.00    -0.394 OA
ATOM     22  H   UNL     1       9.162  -3.682   1.251  1.00  0.00     0.210 HD
ENDBRANCH  20  21
ENDBRANCH  16  20
ENDBRANCH  13  16
ENDBRANCH  11  12
BRANCH  11  23
ATOM     23  CB  PHE A   2       4.994   1.779  -0.129  1.00  0.00     0.070 C 
BRANCH  23  24
ATOM     24  CG  PHE A   2       6.331   2.397  -0.457  1.00  0.00    -0.045 A 
ATOM     25  CD1 PHE A   2       6.822   3.468   0.309  1.00  0.00     0.004 A 
ATOM     26  CD2 PHE A   2       7.113   1.894  -1.516  1.00  0.00     0.004 A 
ATOM     27  CE1 PHE A   2       8.069   4.034   0.012  1.00  0.00     0.000 A 
ATOM     28  CE2 PHE A   2       8.366   2.452  -1.797  1.00  0.00     0.000 A 
ATOM     29  CZ  PHE A   2       8.842   3.524  -1.036  1.00  0.00     0.000 A 
ENDBRANCH  23  24
ENDBRANCH  11  23
ENDBRANCH   8  11
ENDBRANCH   5   7
ENDBRANCH   1   5
BRANCH   3  30
ATOM     30  CA  LEU A   4      -1.184  -0.107  -0.792  1.00  0.00     0.171 C 
BRANCH  30  31
ATOM     31  C   LEU A   4      -2.694  -0.183  -0.778  1.00  0.00     0.243 C 
ATOM     32  N   ARG A   5      -3.409   0.007  -2.016  1.00  0.00    -0.343 N 
ATOM     33  O   LEU A   4      -3.318  -0.353   0.304  1.00  0.00    -0.273 OA
ATOM     34  H   UNL     1      -2.837   0.249  -2.851  1.00  0.00     0.164 HD
BRANCH  32  35
ATOM     35  CA  ARG A   5      -4.862  -0.112  -2.234  1.00  0.00     0.171 C 
BRANCH  35  36
ATOM     36  C   ARG A   5      -5.719   0.841  -1.424  1.00  0.00     0.243 C 
ATOM     37  N   ALA A   6      -5.158   1.791  -0.492  1.00  0.00    -0.341 N 
ATOM     38  O   ARG A   5      -6.964   0.831  -1.632  1.00  0.00    -0.273 OA
ATOM     39  H   UNL     1      -4.130   2.004  -0.516  1.00  0.00     0.164 HD
BRANCH  37  40
ATOM     40  CA  ALA A   6      -6.002   2.568   0.424  1.00  0.00     0.189 C 
ATOM     41  CB  ALA A   6      -5.567   2.307   1.874  1.00  0.00     0.043 C 
BRANCH  40  42
ATOM     42  C   ALA A   6      -5.900   4.032   0.116  1.00  0.00     0.325 C 
ATOM     43  O   ALA A   6      -4.771   4.580  -0.021  1.00  0.00    -0.250 OA
BRANCH  42  44
ATOM     44  OXT ALA A   6      -7.061   4.797   0.046  1.00  0.00    -0.480 OA
ATOM     45  H   UNL     1      -7.019   5.782  -0.160  1.00  0.00     0.296 HD
ENDBRANCH  42  44
ENDBRANCH  40  42
ENDBRANCH  37  40
ENDBRANCH  35  36
BRANCH  35  46
ATOM     46  CB  ARG A   5      -5.358  -1.582  -2.213  1.00  0.00     0.037 C 
BRANCH  46  47
ATOM     47  CG  ARG A   5      -5.316  -2.366  -0.882  1.00  0.00     0.024 C 
BRANCH  47  48
ATOM     48  CD  ARG A   5      -6.176  -1.804   0.257  1.00  0.00     0.116 C 
BRANCH  48  49
ATOM     49  NE  ARG A   5      -7.591  -1.724  -0.105  1.00  0.00    -0.357 N 
ATOM     50  CZ  ARG A   5      -8.570  -1.032   0.690  1.00  0.00     0.185 C 
ATOM     51  NH2 ARG A   5      -9.867  -0.784   0.150  1.00  0.00    -0.370 N 
ATOM     52  H   UNL     1      -7.916  -2.141  -1.007  1.00  0.00     0.163 HD
ATOM     53  H   UNL     1     -10.595  -0.290   0.713  1.00  0.00     0.159 HD
ATOM     54  H   UNL     1     -10.130  -1.160  -0.792  1.00  0.00     0.159 HD
BRANCH  50  55
ATOM     55  NH1 ARG A   5      -8.300  -0.629   1.896  1.00  0.00    -0.270 NA
ATOM     56  H   UNL     1      -7.381  -0.790   2.364  1.00  0.00     0.191 HD
ENDBRANCH  50  55
ENDBRANCH  48  49
ENDBRANCH  47  48
ENDBRANCH  46  47
ENDBRANCH  35  46
ENDBRANCH  32  35
ENDBRANCH  30  31
BRANCH  30  57
ATOM     57  CB  LEU A   4      -0.540  -1.300  -1.533  1.00  0.00     0.038 C 
BRANCH  57  58
ATOM     58  CG  LEU A   4      -0.863  -2.704  -0.960  1.00  0.00    -0.015 C 
ATOM     59  CD1 LEU A   4      -0.685  -3.768  -2.055  1.00  0.00     0.007 C 
ATOM     60  CD2 LEU A   4       0.027  -3.069   0.243  1.00  0.00     0.007 C 
ENDBRANCH  57  58
ENDBRANCH  30  57
ENDBRANCH   3  30
TORSDOF 24
