REMARK SMILES CC(C)C[C@H](NC(=O)CNC(=O)[C@H](Cc1ccccc1)NC(=O)[C@@H](N)CO)C(=O)N[C@@H](Cc1c[nH]cn1)C(=O)N[C@@H](CC(N)=O)C(=O)O
REMARK SMILES IDX 7 1 8 2 6 3 9 5 10 6 11 7 12 8 13 10 21 11 22 12 23 13 24 15
REMARK SMILES IDX 25 16 26 19 27 20 14 22 15 23 16 24 20 25 17 26 19 27 18 28
REMARK SMILES IDX 5 29 28 30 30 31 29 32 31 34 38 35 40 36 39 37 41 39 46 40
REMARK SMILES IDX 47 41 48 42 42 44 43 45 44 46 45 47 32 50 33 51 37 52 34 53
REMARK SMILES IDX 36 54 35 55 4 57 2 58 1 59 3 60
REMARK H PARENT 6 4 10 9 21 14 25 17 25 18 27 21 30 33 40 38 48 43 44 48 44 49
REMARK H PARENT 35 56
ROOT
ATOM      1  C   GLY A   3      -1.724  -1.844  -0.237  1.00  0.00     0.240 C 
ATOM      2  O   GLY A   3      -1.838  -2.015   1.009  1.00  0.00    -0.273 OA
ATOM      3  N   LEU A   4      -0.425  -1.717  -0.831  1.00  0.00    -0.343 N 
ATOM      4  H   UNL     1      -0.352  -1.728  -1.873  1.00  0.00     0.164 HD
ENDROOT
BRANCH   1   5
ATOM      5  CA  GLY A   3      -2.950  -1.844  -1.104  1.00  0.00     0.216 C 
BRANCH   5   6
ATOM      6  N   GLY A   3      -4.060  -1.181  -0.420  1.00  0.00    -0.345 N 
ATOM      7  C   PHE A   2      -4.740  -0.030  -0.945  1.00  0.00     0.243 C 
ATOM      8  O   PHE A   2      -4.416   0.449  -2.063  1.00  0.00    -0.273 OA
ATOM      9  H   UNL     1      -4.430  -1.624   0.455  1.00  0.00     0.164 HD
BRANCH   7  10
ATOM     10  CA  PHE A   2      -5.907   0.558  -0.193  1.00  0.00     0.175 C 
BRANCH  10  11
ATOM     11  N   PHE A   2      -5.823   2.022  -0.199  1.00  0.00    -0.343 N 
ATOM     12  C   SER A   1      -4.864   2.736   0.599  1.00  0.00     0.239 C 
ATOM     13  O   SER A   1      -3.962   2.104   1.225  1.00  0.00    -0.273 OA
ATOM     14  H   UNL     1      -6.503   2.566  -0.775  1.00  0.00     0.164 HD
BRANCH  12  15
ATOM     15  CA  SER A   1      -4.923   4.244   0.719  1.00  0.00     0.167 C 
BRANCH  15  16
ATOM     16  N   SER A   1      -4.688   4.891  -0.577  1.00  0.00    -0.318 NA
ATOM     17  H   UNL     1      -3.729   4.634  -0.910  1.00  0.00     0.119 HD
ATOM     18  H   UNL     1      -5.374   4.537  -1.282  1.00  0.00     0.119 HD
ENDBRANCH  15  16
BRANCH  15  19
ATOM     19  CB  SER A   1      -6.266   4.711   1.306  1.00  0.00     0.184 C 
BRANCH  19  20
ATOM     20  OG  SER A   1      -6.517   4.081   2.535  1.00  0.00    -0.394 OA
ATOM     21  H   UNL     1      -5.897   4.489   3.196  1.00  0.00     0.210 HD
ENDBRANCH  19  20
ENDBRANCH  15  19
ENDBRANCH  12  15
ENDBRANCH  10  11
BRANCH  10  22
ATOM     22  CB  PHE A   2      -7.243   0.099  -0.813  1.00  0.00     0.070 C 
BRANCH  22  23
ATOM     23  CG  PHE A   2      -7.422  -1.397  -0.725  1.00  0.00    -0.045 A 
ATOM     24  CD1 PHE A   2      -7.149  -2.212  -1.837  1.00  0.00     0.004 A 
ATOM     25  CD2 PHE A   2      -7.815  -1.995   0.486  1.00  0.00     0.004 A 
ATOM     26  CE1 PHE A   2      -7.281  -3.602  -1.741  1.00  0.00     0.000 A 
ATOM     27  CE2 PHE A   2      -7.940  -3.386   0.579  1.00  0.00     0.000 A 
ATOM     28  CZ  PHE A   2      -7.676  -4.189  -0.534  1.00  0.00     0.000 A 
ENDBRANCH  22  23
ENDBRANCH  10  22
ENDBRANCH   7  10
ENDBRANCH   5   6
ENDBRANCH   1   5
BRANCH   3  29
ATOM     29  CA  LEU A   4       0.806  -1.747  -0.039  1.00  0.00     0.171 C 
BRANCH  29  30
ATOM     30  C   LEU A   4       1.841  -0.884  -0.713  1.00  0.00     0.243 C 
ATOM     31  N   HIS A   5       2.016   0.477  -0.298  1.00  0.00    -0.342 N 
ATOM     32  O   LEU A   4       2.511  -1.342  -1.680  1.00  0.00    -0.273 OA
ATOM     33  H   UNL     1       1.360   0.868   0.416  1.00  0.00     0.164 HD
BRANCH  31  34
ATOM     34  CA  HIS A   5       3.237   1.227  -0.595  1.00  0.00     0.177 C 
BRANCH  34  35
ATOM     35  C   HIS A   5       4.220   1.038   0.530  1.00  0.00     0.243 C 
ATOM     36  N   ASN A   6       5.562   0.618   0.245  1.00  0.00    -0.340 N 
ATOM     37  O   HIS A   5       3.857   1.271   1.717  1.00  0.00    -0.273 OA
ATOM     38  H   UNL     1       5.841   0.490  -0.754  1.00  0.00     0.164 HD
BRANCH  36  39
ATOM     39  CA  ASN A   6       6.600   0.516   1.279  1.00  0.00     0.201 C 
BRANCH  39  40
ATOM     40  C   ASN A   6       7.581   1.652   1.162  1.00  0.00     0.326 C 
ATOM     41  O   ASN A   6       7.748   2.250   0.065  1.00  0.00    -0.250 OA
BRANCH  40  42
ATOM     42  OXT ASN A   6       8.335   2.021   2.272  1.00  0.00    -0.480 OA
ATOM     43  H   UNL     1       9.007   2.777   2.219  1.00  0.00     0.296 HD
ENDBRANCH  40  42
ENDBRANCH  39  40
BRANCH  39  44
ATOM     44  CB  ASN A   6       7.300  -0.857   1.221  1.00  0.00     0.136 C 
BRANCH  44  45
ATOM     45  CG  ASN A   6       7.852  -1.205  -0.137  1.00  0.00     0.220 C 
ATOM     46  ND2 ASN A   6       7.469  -2.424  -0.783  1.00  0.00    -0.370 N 
ATOM     47  OD1 ASN A   6       8.681  -0.440  -0.700  1.00  0.00    -0.275 OA
ATOM     48  H   UNL     1       7.841  -2.652  -1.730  1.00  0.00     0.159 HD
ATOM     49  H   UNL     1       6.808  -3.088  -0.325  1.00  0.00     0.159 HD
ENDBRANCH  44  45
ENDBRANCH  39  44
ENDBRANCH  36  39
ENDBRANCH  34  35
BRANCH  34  50
ATOM     50  CB  HIS A   5       2.907   2.716  -0.795  1.00  0.00     0.093 C 
BRANCH  50  51
ATOM     51  CG  HIS A   5       4.123   3.496  -1.200  1.00  0.00     0.061 A 
ATOM     52  ND1 HIS A   5       4.843   4.264  -0.356  1.00  0.00    -0.242 NA
ATOM     53  CD2 HIS A   5       4.722   3.469  -2.438  1.00  0.00     0.107 A 
ATOM     54  CE1 HIS A   5       5.868   4.704  -1.115  1.00  0.00     0.196 A 
ATOM     55  NE2 HIS A   5       5.821   4.236  -2.377  1.00  0.00    -0.351 N 
ATOM     56  H   UNL     1       6.504   4.423  -3.143  1.00  0.00     0.167 HD
ENDBRANCH  50  51
ENDBRANCH  34  50
ENDBRANCH  31  34
ENDBRANCH  29  30
BRANCH  29  57
ATOM     57  CB  LEU A   4       1.273  -3.212   0.144  1.00  0.00     0.038 C 
BRANCH  57  58
ATOM     58  CG  LEU A   4       2.218  -3.426   1.355  1.00  0.00    -0.015 C 
ATOM     59  CD1 LEU A   4       2.401  -4.928   1.615  1.00  0.00     0.007 C 
ATOM     60  CD2 LEU A   4       3.592  -2.763   1.156  1.00  0.00     0.007 C 
ENDBRANCH  57  58
ENDBRANCH  29  57
ENDBRANCH   3  29
TORSDOF 23
