REMARK SMILES CC(C)C[C@H](NC(=O)[C@H](CCCCN)NC(=O)[C@H](Cc1ccccc1)NC(=O)[C@@H](N)Cc1c[nH]cn1)C(=O)N[C@@H](CCCNC(=N)N)C(=O)N[C@@H](CC(N)=O)C(=O)O
REMARK SMILES IDX 7 1 8 2 6 3 9 5 15 6 16 7 17 8 18 10 26 11 27 12 28 13 29 15
REMARK SMILES IDX 30 16 31 19 32 20 36 21 33 22 35 23 34 24 19 26 20 27 21 28
REMARK SMILES IDX 25 29 22 30 24 31 23 32 10 33 11 34 12 35 13 36 14 37 5 40
REMARK SMILES IDX 37 41 39 42 38 43 40 45 48 46 50 47 49 48 51 50 56 51 57 52
REMARK SMILES IDX 58 53 52 55 53 56 54 57 55 58 41 61 42 62 43 63 44 64 45 65
REMARK SMILES IDX 47 66 46 70 4 72 2 73 1 74 3 75
REMARK H PARENT 6 4 15 9 26 14 30 17 30 18 34 25 14 38 14 39 39 44 50 49 58 54
REMARK H PARENT 54 59 54 60 44 67 47 68 47 69 46 71
ROOT
ATOM      1  C   LYS A   3      20.033  10.079  -6.474  1.00  0.00     0.243 C 
ATOM      2  O   LYS A   3      20.146   9.157  -5.619  1.00  0.00    -0.273 OA
ATOM      3  N   LEU A   4      20.565   9.919  -7.778  1.00  0.00    -0.343 N 
ATOM      4  H   UNL     1      20.406  10.663  -8.497  1.00  0.00     0.164 HD
ENDROOT
BRANCH   1   5
ATOM      5  CA  LYS A   3      19.338  11.354  -6.142  1.00  0.00     0.171 C 
BRANCH   5   6
ATOM      6  N   LYS A   3      18.088  11.051  -5.495  1.00  0.00    -0.343 N 
ATOM      7  C   PHE A   2      16.886  11.751  -5.772  1.00  0.00     0.243 C 
ATOM      8  O   PHE A   2      16.904  12.793  -6.484  1.00  0.00    -0.273 OA
ATOM      9  H   UNL     1      18.163  10.513  -4.606  1.00  0.00     0.164 HD
BRANCH   7  10
ATOM     10  CA  PHE A   2      15.647  11.315  -5.065  1.00  0.00     0.175 C 
BRANCH  10  11
ATOM     11  N   PHE A   2      14.456  11.744  -5.785  1.00  0.00    -0.343 N 
ATOM     12  C   HIS A   1      13.907  13.049  -5.633  1.00  0.00     0.237 C 
ATOM     13  O   HIS A   1      14.444  13.862  -4.831  1.00  0.00    -0.273 OA
ATOM     14  H   UNL     1      13.922  11.022  -6.313  1.00  0.00     0.164 HD
BRANCH  12  15
ATOM     15  CA  HIS A   1      12.648  13.424  -6.382  1.00  0.00     0.147 C 
BRANCH  15  16
ATOM     16  N   HIS A   1      12.480  14.881  -6.376  1.00  0.00    -0.320 NA
ATOM     17  H   UNL     1      12.417  15.206  -5.384  1.00  0.00     0.119 HD
ATOM     18  H   UNL     1      11.547  15.119  -6.782  1.00  0.00     0.119 HD
ENDBRANCH  15  16
BRANCH  15  19
ATOM     19  CB  HIS A   1      12.689  12.896  -7.839  1.00  0.00     0.086 C 
BRANCH  19  20
ATOM     20  CG  HIS A   1      11.479  13.304  -8.627  1.00  0.00     0.060 A 
ATOM     21  ND1 HIS A   1      10.248  12.790  -8.435  1.00  0.00    -0.242 NA
ATOM     22  CD2 HIS A   1      11.438  14.269  -9.608  1.00  0.00     0.107 A 
ATOM     23  CE1 HIS A   1       9.478  13.458  -9.321  1.00  0.00     0.196 A 
ATOM     24  NE2 HIS A   1      10.172  14.358 -10.043  1.00  0.00    -0.351 N 
ATOM     25  H   UNL     1       9.802  14.996 -10.782  1.00  0.00     0.167 HD
ENDBRANCH  19  20
ENDBRANCH  15  19
ENDBRANCH  12  15
ENDBRANCH  10  11
BRANCH  10  26
ATOM     26  CB  PHE A   2      15.608   9.776  -4.897  1.00  0.00     0.070 C 
BRANCH  26  27
ATOM     27  CG  PHE A   2      14.441   9.291  -4.093  1.00  0.00    -0.045 A 
ATOM     28  CD1 PHE A   2      13.902  10.048  -3.035  1.00  0.00     0.004 A 
ATOM     29  CD2 PHE A   2      13.967   7.990  -4.311  1.00  0.00     0.004 A 
ATOM     30  CE1 PHE A   2      12.869   9.536  -2.260  1.00  0.00     0.000 A 
ATOM     31  CE2 PHE A   2      12.940   7.477  -3.521  1.00  0.00     0.000 A 
ATOM     32  CZ  PHE A   2      12.387   8.253  -2.501  1.00  0.00     0.000 A 
ENDBRANCH  26  27
ENDBRANCH  10  26
ENDBRANCH   7  10
ENDBRANCH   5   6
BRANCH   5  33
ATOM     33  CB  LYS A   3      20.203  12.238  -5.243  1.00  0.00     0.035 C 
BRANCH  33  34
ATOM     34  CG  LYS A   3      20.420  11.690  -3.816  1.00  0.00     0.004 C 
BRANCH  34  35
ATOM     35  CD  LYS A   3      21.771  12.149  -3.264  1.00  0.00     0.015 C 
BRANCH  35  36
ATOM     36  CE  LYS A   3      21.835  11.958  -1.742  1.00  0.00     0.077 C 
BRANCH  36  37
ATOM     37  NZ  LYS A   3      22.941  12.726  -1.180  1.00  0.00    -0.330 NA
ATOM     38  H   UNL     1      22.698  13.742  -1.235  1.00  0.00     0.118 HD
ATOM     39  H   UNL     1      23.006  12.492  -0.163  1.00  0.00     0.118 HD
ENDBRANCH  36  37
ENDBRANCH  35  36
ENDBRANCH  34  35
ENDBRANCH  33  34
ENDBRANCH   5  33
ENDBRANCH   1   5
BRANCH   3  40
ATOM     40  CA  LEU A   4      21.349   8.758  -8.143  1.00  0.00     0.171 C 
BRANCH  40  41
ATOM     41  C   LEU A   4      22.714   9.215  -8.523  1.00  0.00     0.243 C 
ATOM     42  N   ARG A   5      23.823   8.721  -7.786  1.00  0.00    -0.343 N 
ATOM     43  O   LEU A   4      22.878  10.032  -9.469  1.00  0.00    -0.273 OA
ATOM     44  H   UNL     1      23.667   8.031  -7.016  1.00  0.00     0.164 HD
BRANCH  42  45
ATOM     45  CA  ARG A   5      25.186   9.122  -8.073  1.00  0.00     0.171 C 
BRANCH  45  46
ATOM     46  C   ARG A   5      25.900   7.968  -8.685  1.00  0.00     0.243 C 
ATOM     47  N   ASN A   6      25.913   7.864 -10.102  1.00  0.00    -0.341 N 
ATOM     48  O   ARG A   5      26.447   7.087  -7.969  1.00  0.00    -0.273 OA
ATOM     49  H   UNL     1      25.489   8.647 -10.651  1.00  0.00     0.164 HD
BRANCH  47  50
ATOM     50  CA  ASN A   6      26.542   6.750 -10.804  1.00  0.00     0.201 C 
BRANCH  50  51
ATOM     51  C   ASN A   6      27.993   6.642 -10.416  1.00  0.00     0.326 C 
ATOM     52  O   ASN A   6      28.794   7.579 -10.677  1.00  0.00    -0.250 OA
BRANCH  51  53
ATOM     53  OXT ASN A   6      28.451   5.499  -9.768  1.00  0.00    -0.480 OA
ATOM     54  H   UNL     1      29.424   5.409  -9.500  1.00  0.00     0.296 HD
ENDBRANCH  51  53
ENDBRANCH  50  51
BRANCH  50  55
ATOM     55  CB  ASN A   6      26.424   6.946 -12.323  1.00  0.00     0.136 C 
BRANCH  55  56
ATOM     56  CG  ASN A   6      25.010   7.180 -12.773  1.00  0.00     0.220 C 
ATOM     57  ND2 ASN A   6      24.753   8.090 -13.833  1.00  0.00    -0.370 N 
ATOM     58  OD1 ASN A   6      24.053   6.558 -12.243  1.00  0.00    -0.275 OA
ATOM     59  H   UNL     1      25.533   8.600 -14.306  1.00  0.00     0.159 HD
ATOM     60  H   UNL     1      23.775   8.258 -14.156  1.00  0.00     0.159 HD
ENDBRANCH  55  56
ENDBRANCH  50  55
ENDBRANCH  47  50
ENDBRANCH  45  46
BRANCH  45  61
ATOM     61  CB  ARG A   5      25.863   9.606  -6.796  1.00  0.00     0.037 C 
BRANCH  61  62
ATOM     62  CG  ARG A   5      25.165  10.861  -6.272  1.00  0.00     0.024 C 
BRANCH  62  63
ATOM     63  CD  ARG A   5      25.838  11.394  -5.016  1.00  0.00     0.116 C 
BRANCH  63  64
ATOM     64  NE  ARG A   5      25.379  10.683  -3.825  1.00  0.00    -0.357 N 
ATOM     65  CZ  ARG A   5      25.478  11.271  -2.528  1.00  0.00     0.185 C 
ATOM     66  NH2 ARG A   5      26.104  12.539  -2.349  1.00  0.00    -0.370 N 
ATOM     67  H   UNL     1      24.901   9.758  -3.925  1.00  0.00     0.163 HD
ATOM     68  H   UNL     1      26.678  12.992  -3.093  1.00  0.00     0.159 HD
ATOM     69  H   UNL     1      26.084  13.000  -1.412  1.00  0.00     0.159 HD
BRANCH  65  70
ATOM     70  NH1 ARG A   5      24.985  10.659  -1.499  1.00  0.00    -0.270 NA
ATOM     71  H   UNL     1      24.511   9.732  -1.584  1.00  0.00     0.191 HD
ENDBRANCH  65  70
ENDBRANCH  63  64
ENDBRANCH  62  63
ENDBRANCH  61  62
ENDBRANCH  45  61
ENDBRANCH  42  45
ENDBRANCH  40  41
BRANCH  40  72
ATOM     72  CB  LEU A   4      20.656   7.998  -9.275  1.00  0.00     0.038 C 
BRANCH  72  73
ATOM     73  CG  LEU A   4      21.449   6.769  -9.770  1.00  0.00    -0.015 C 
ATOM     74  CD1 LEU A   4      21.762   5.778  -8.639  1.00  0.00     0.007 C 
ATOM     75  CD2 LEU A   4      20.662   6.066 -10.878  1.00  0.00     0.007 C 
ENDBRANCH  72  73
ENDBRANCH  40  72
ENDBRANCH   3  40
TORSDOF 31
