REMARK SMILES CC(C)C[C@H](NC(=O)[C@H](CCCCN)NC(=O)[C@H](Cc1ccccc1)NC(=O)[C@@H](N)CO)C(=O)N[C@@H](CCCNC(=N)N)C(=O)N[C@@H](C)C(=O)O
REMARK SMILES IDX 7 1 8 2 6 3 9 5 15 6 16 7 17 8 18 10 26 11 27 12 28 13 29 15
REMARK SMILES IDX 30 16 31 19 32 20 19 22 20 23 21 24 25 25 22 26 24 27 23 28
REMARK SMILES IDX 10 29 11 30 12 31 13 32 14 33 5 36 33 37 35 38 34 39 36 41
REMARK SMILES IDX 44 42 46 43 45 44 47 46 48 47 49 48 50 49 51 50 37 52 38 53
REMARK SMILES IDX 39 54 40 55 41 56 43 57 42 61 4 63 2 64 1 65 3 66
REMARK H PARENT 6 4 15 9 26 14 30 17 30 18 32 21 14 34 14 35 35 40 46 45 51 51
REMARK H PARENT 40 58 43 59 43 60 42 62
ROOT
ATOM      1  C   LYS A   3      20.033  10.079  -6.475  1.00  0.00     0.243 C 
ATOM      2  O   LYS A   3      20.146   9.157  -5.619  1.00  0.00    -0.273 OA
ATOM      3  N   LEU A   4      20.565   9.919  -7.779  1.00  0.00    -0.343 N 
ATOM      4  H   UNL     1      20.406  10.662  -8.498  1.00  0.00     0.164 HD
ENDROOT
BRANCH   1   5
ATOM      5  CA  LYS A   3      19.338  11.354  -6.143  1.00  0.00     0.171 C 
BRANCH   5   6
ATOM      6  N   LYS A   3      18.088  11.051  -5.496  1.00  0.00    -0.343 N 
ATOM      7  C   PHE A   2      16.886  11.750  -5.772  1.00  0.00     0.243 C 
ATOM      8  O   PHE A   2      16.901  12.792  -6.484  1.00  0.00    -0.273 OA
ATOM      9  H   UNL     1      18.165  10.514  -4.607  1.00  0.00     0.164 HD
BRANCH   7  10
ATOM     10  CA  PHE A   2      15.650  11.314  -5.059  1.00  0.00     0.175 C 
BRANCH  10  11
ATOM     11  N   PHE A   2      14.452  11.740  -5.769  1.00  0.00    -0.343 N 
ATOM     12  C   SER A   1      13.913  13.050  -5.637  1.00  0.00     0.239 C 
ATOM     13  O   SER A   1      14.447  13.869  -4.840  1.00  0.00    -0.273 OA
ATOM     14  H   UNL     1      13.861  10.999  -6.206  1.00  0.00     0.164 HD
BRANCH  12  15
ATOM     15  CA  SER A   1      12.654  13.409  -6.387  1.00  0.00     0.167 C 
BRANCH  15  16
ATOM     16  N   SER A   1      12.467  14.862  -6.384  1.00  0.00    -0.318 NA
ATOM     17  H   UNL     1      11.582  15.088  -6.895  1.00  0.00     0.119 HD
ATOM     18  H   UNL     1      12.301  15.172  -5.399  1.00  0.00     0.119 HD
ENDBRANCH  15  16
BRANCH  15  19
ATOM     19  CB  SER A   1      12.698  12.895  -7.844  1.00  0.00     0.184 C 
BRANCH  19  20
ATOM     20  OG  SER A   1      11.440  13.041  -8.441  1.00  0.00    -0.394 OA
ATOM     21  H   UNL     1      11.549  12.779  -9.392  1.00  0.00     0.210 HD
ENDBRANCH  19  20
ENDBRANCH  15  19
ENDBRANCH  12  15
ENDBRANCH  10  11
BRANCH  10  22
ATOM     22  CB  PHE A   2      15.613   9.774  -4.891  1.00  0.00     0.070 C 
BRANCH  22  23
ATOM     23  CG  PHE A   2      14.444   9.289  -4.090  1.00  0.00    -0.045 A 
ATOM     24  CD1 PHE A   2      13.903  10.046  -3.032  1.00  0.00     0.004 A 
ATOM     25  CD2 PHE A   2      13.969   7.989  -4.310  1.00  0.00     0.004 A 
ATOM     26  CE1 PHE A   2      12.869   9.535  -2.260  1.00  0.00     0.000 A 
ATOM     27  CE2 PHE A   2      12.940   7.477  -3.521  1.00  0.00     0.000 A 
ATOM     28  CZ  PHE A   2      12.386   8.252  -2.502  1.00  0.00     0.000 A 
ENDBRANCH  22  23
ENDBRANCH  10  22
ENDBRANCH   7  10
ENDBRANCH   5   6
BRANCH   5  29
ATOM     29  CB  LYS A   3      20.203  12.238  -5.243  1.00  0.00     0.035 C 
BRANCH  29  30
ATOM     30  CG  LYS A   3      20.420  11.690  -3.816  1.00  0.00     0.004 C 
BRANCH  30  31
ATOM     31  CD  LYS A   3      21.771  12.149  -3.264  1.00  0.00     0.015 C 
BRANCH  31  32
ATOM     32  CE  LYS A   3      21.835  11.958  -1.742  1.00  0.00     0.077 C 
BRANCH  32  33
ATOM     33  NZ  LYS A   3      22.941  12.726  -1.180  1.00  0.00    -0.330 NA
ATOM     34  H   UNL     1      23.006  12.493  -0.163  1.00  0.00     0.118 HD
ATOM     35  H   UNL     1      22.699  13.742  -1.236  1.00  0.00     0.118 HD
ENDBRANCH  32  33
ENDBRANCH  31  32
ENDBRANCH  30  31
ENDBRANCH  29  30
ENDBRANCH   5  29
ENDBRANCH   1   5
BRANCH   3  36
ATOM     36  CA  LEU A   4      21.350   8.758  -8.144  1.00  0.00     0.171 C 
BRANCH  36  37
ATOM     37  C   LEU A   4      22.714   9.216  -8.523  1.00  0.00     0.243 C 
ATOM     38  N   ARG A   5      23.823   8.721  -7.788  1.00  0.00    -0.343 N 
ATOM     39  O   LEU A   4      22.878  10.034  -9.469  1.00  0.00    -0.273 OA
ATOM     40  H   UNL     1      23.668   8.031  -7.017  1.00  0.00     0.164 HD
BRANCH  38  41
ATOM     41  CA  ARG A   5      25.187   9.120  -8.079  1.00  0.00     0.171 C 
BRANCH  41  42
ATOM     42  C   ARG A   5      25.898   7.963  -8.692  1.00  0.00     0.243 C 
ATOM     43  N   ALA A   6      25.884   7.839 -10.110  1.00  0.00    -0.341 N 
ATOM     44  O   ARG A   5      26.456   7.091  -7.974  1.00  0.00    -0.273 OA
ATOM     45  H   UNL     1      25.367   8.562 -10.663  1.00  0.00     0.164 HD
BRANCH  43  46
ATOM     46  CA  ALA A   6      26.544   6.745 -10.813  1.00  0.00     0.189 C 
ATOM     47  CB  ALA A   6      26.419   6.955 -12.323  1.00  0.00     0.043 C 
BRANCH  46  48
ATOM     48  C   ALA A   6      27.993   6.651 -10.418  1.00  0.00     0.325 C 
ATOM     49  O   ALA A   6      28.790   7.589 -10.686  1.00  0.00    -0.250 OA
BRANCH  48  50
ATOM     50  OXT ALA A   6      28.456   5.520  -9.752  1.00  0.00    -0.480 OA
ATOM     51  H   UNL     1      29.427   5.440  -9.477  1.00  0.00     0.296 HD
ENDBRANCH  48  50
ENDBRANCH  46  48
ENDBRANCH  43  46
ENDBRANCH  41  42
BRANCH  41  52
ATOM     52  CB  ARG A   5      25.864   9.606  -6.801  1.00  0.00     0.037 C 
BRANCH  52  53
ATOM     53  CG  ARG A   5      25.166  10.859  -6.274  1.00  0.00     0.024 C 
BRANCH  53  54
ATOM     54  CD  ARG A   5      25.838  11.392  -5.017  1.00  0.00     0.116 C 
BRANCH  54  55
ATOM     55  NE  ARG A   5      25.379  10.683  -3.826  1.00  0.00    -0.357 N 
ATOM     56  CZ  ARG A   5      25.478  11.271  -2.529  1.00  0.00     0.185 C 
ATOM     57  NH2 ARG A   5      26.104  12.539  -2.350  1.00  0.00    -0.370 N 
ATOM     58  H   UNL     1      24.902   9.758  -3.926  1.00  0.00     0.163 HD
ATOM     59  H   UNL     1      26.677  12.992  -3.094  1.00  0.00     0.159 HD
ATOM     60  H   UNL     1      26.084  12.999  -1.413  1.00  0.00     0.159 HD
BRANCH  56  61
ATOM     61  NH1 ARG A   5      24.985  10.659  -1.500  1.00  0.00    -0.270 NA
ATOM     62  H   UNL     1      24.511   9.732  -1.584  1.00  0.00     0.191 HD
ENDBRANCH  56  61
ENDBRANCH  54  55
ENDBRANCH  53  54
ENDBRANCH  52  53
ENDBRANCH  41  52
ENDBRANCH  38  41
ENDBRANCH  36  37
BRANCH  36  63
ATOM     63  CB  LEU A   4      20.658   7.998  -9.276  1.00  0.00     0.038 C 
BRANCH  63  64
ATOM     64  CG  LEU A   4      21.450   6.769  -9.772  1.00  0.00    -0.015 C 
ATOM     65  CD1 LEU A   4      21.763   5.778  -8.640  1.00  0.00     0.007 C 
ATOM     66  CD2 LEU A   4      20.659   6.064 -10.877  1.00  0.00     0.007 C 
ENDBRANCH  63  64
ENDBRANCH  36  63
ENDBRANCH   3  36
TORSDOF 29
