REMARK SMILES CC(C)C[C@H](NC(=O)[C@H](Cc1ccc(O)cc1)NC(=O)[C@@H](N)CO)C(=O)N[C@@H](C)C(=O)N[C@@H](CCCNC(=N)N)C(=O)N[C@@H](CC(N)=O)C(=O)O
REMARK SMILES IDX 25 1 26 2 27 3 5 5 6 6 7 7 8 8 9 10 18 11 19 12 20 13 21 15
REMARK SMILES IDX 22 16 23 19 24 20 10 22 11 23 12 24 17 25 13 26 16 27 14 28
REMARK SMILES IDX 15 29 4 31 2 32 1 33 3 34 28 35 29 36 30 37 32 38 31 39
REMARK SMILES IDX 33 41 41 42 43 43 42 44 44 46 49 47 50 48 51 49 45 51 46 52
REMARK SMILES IDX 47 53 48 54 34 57 35 58 36 59 37 60 38 61 40 62 39 66
REMARK H PARENT 27 4 6 9 18 14 22 17 22 18 24 21 15 30 32 40 43 45 51 50 47 55
REMARK H PARENT 47 56 37 63 40 64 40 65 39 67
ROOT
ATOM      1  C   LEU A   3      20.054  10.082  -6.477  1.00  0.00     0.243 C 
ATOM      2  O   LEU A   3      20.167   9.158  -5.624  1.00  0.00    -0.273 OA
ATOM      3  N   ALA A   4      20.564   9.911  -7.787  1.00  0.00    -0.343 N 
ATOM      4  H   UNL     1      20.402  10.653  -8.506  1.00  0.00     0.164 HD
ENDROOT
BRANCH   1   5
ATOM      5  CA  LEU A   3      19.341  11.352  -6.147  1.00  0.00     0.171 C 
BRANCH   5   6
ATOM      6  N   LEU A   3      18.084  11.020  -5.538  1.00  0.00    -0.343 N 
ATOM      7  C   TYR A   2      16.887  11.744  -5.776  1.00  0.00     0.243 C 
ATOM      8  O   TYR A   2      16.906  12.795  -6.474  1.00  0.00    -0.273 OA
ATOM      9  H   UNL     1      18.156  10.385  -4.718  1.00  0.00     0.164 HD
BRANCH   7  10
ATOM     10  CA  TYR A   2      15.653  11.312  -5.056  1.00  0.00     0.175 C 
BRANCH  10  11
ATOM     11  N   TYR A   2      14.456  11.739  -5.766  1.00  0.00    -0.343 N 
ATOM     12  C   SER A   1      13.919  13.049  -5.633  1.00  0.00     0.239 C 
ATOM     13  O   SER A   1      14.449  13.867  -4.832  1.00  0.00    -0.273 OA
ATOM     14  H   UNL     1      13.869  11.000  -6.212  1.00  0.00     0.164 HD
BRANCH  12  15
ATOM     15  CA  SER A   1      12.662  13.410  -6.386  1.00  0.00     0.167 C 
BRANCH  15  16
ATOM     16  N   SER A   1      12.455  14.860  -6.398  1.00  0.00    -0.318 NA
ATOM     17  H   UNL     1      12.286  15.190  -5.420  1.00  0.00     0.119 HD
ATOM     18  H   UNL     1      13.316  15.337  -6.755  1.00  0.00     0.119 HD
ENDBRANCH  15  16
BRANCH  15  19
ATOM     19  CB  SER A   1      12.690  12.886  -7.840  1.00  0.00     0.184 C 
BRANCH  19  20
ATOM     20  OG  SER A   1      11.438  13.053  -8.445  1.00  0.00    -0.394 OA
ATOM     21  H   UNL     1      10.839  12.361  -8.060  1.00  0.00     0.210 HD
ENDBRANCH  19  20
ENDBRANCH  15  19
ENDBRANCH  12  15
ENDBRANCH  10  11
BRANCH  10  22
ATOM     22  CB  TYR A   2      15.610   9.773  -4.880  1.00  0.00     0.070 C 
BRANCH  22  23
ATOM     23  CG  TYR A   2      14.436   9.292  -4.092  1.00  0.00    -0.045 A 
ATOM     24  CD1 TYR A   2      13.898  10.047  -3.033  1.00  0.00     0.007 A 
ATOM     25  CD2 TYR A   2      13.964   7.991  -4.310  1.00  0.00     0.007 A 
ATOM     26  CE1 TYR A   2      12.866   9.536  -2.259  1.00  0.00     0.046 A 
ATOM     27  CE2 TYR A   2      12.938   7.476  -3.521  1.00  0.00     0.046 A 
ATOM     28  CZ  TYR A   2      12.382   8.251  -2.497  1.00  0.00     0.115 A 
BRANCH  28  29
ATOM     29  OH  TYR A   2      11.351   7.748  -1.707  1.00  0.00    -0.508 OA
ATOM     30  H   UNL     1      10.978   6.817  -1.853  1.00  0.00     0.293 HD
ENDBRANCH  28  29
ENDBRANCH  22  23
ENDBRANCH  10  22
ENDBRANCH   7  10
ENDBRANCH   5   6
BRANCH   5  31
ATOM     31  CB  LEU A   3      20.165  12.252  -5.216  1.00  0.00     0.038 C 
BRANCH  31  32
ATOM     32  CG  LEU A   3      20.417  11.679  -3.791  1.00  0.00    -0.015 C 
ATOM     33  CD1 LEU A   3      21.819  12.066  -3.316  1.00  0.00     0.007 C 
ATOM     34  CD2 LEU A   3      19.369  12.169  -2.781  1.00  0.00     0.007 C 
ENDBRANCH  31  32
ENDBRANCH   5  31
ENDBRANCH   1   5
BRANCH   3  35
ATOM     35  CA  ALA A   4      21.343   8.746  -8.158  1.00  0.00     0.168 C 
ATOM     36  CB  ALA A   4      20.665   8.004  -9.301  1.00  0.00     0.041 C 
BRANCH  35  37
ATOM     37  C   ALA A   4      22.711   9.197  -8.534  1.00  0.00     0.242 C 
ATOM     38  N   ARG A   5      23.817   8.706  -7.791  1.00  0.00    -0.343 N 
ATOM     39  O   ALA A   4      22.877  10.026  -9.470  1.00  0.00    -0.273 OA
ATOM     40  H   UNL     1      23.662   7.985  -7.050  1.00  0.00     0.164 HD
BRANCH  38  41
ATOM     41  CA  ARG A   5      25.181   9.117  -8.072  1.00  0.00     0.171 C 
BRANCH  41  42
ATOM     42  C   ARG A   5      25.902   7.968  -8.686  1.00  0.00     0.243 C 
ATOM     43  N   ASN A   6      25.916   7.866 -10.103  1.00  0.00    -0.341 N 
ATOM     44  O   ARG A   5      26.450   7.087  -7.970  1.00  0.00    -0.273 OA
ATOM     45  H   UNL     1      25.496   8.651 -10.651  1.00  0.00     0.164 HD
BRANCH  43  46
ATOM     46  CA  ASN A   6      26.543   6.751 -10.804  1.00  0.00     0.201 C 
BRANCH  46  47
ATOM     47  C   ASN A   6      27.994   6.642 -10.417  1.00  0.00     0.326 C 
ATOM     48  O   ASN A   6      28.795   7.579 -10.677  1.00  0.00    -0.250 OA
BRANCH  47  49
ATOM     49  OXT ASN A   6      28.453   5.497  -9.772  1.00  0.00    -0.480 OA
ATOM     50  H   UNL     1      29.426   5.407  -9.504  1.00  0.00     0.296 HD
ENDBRANCH  47  49
ENDBRANCH  46  47
BRANCH  46  51
ATOM     51  CB  ASN A   6      26.424   6.946 -12.323  1.00  0.00     0.136 C 
BRANCH  51  52
ATOM     52  CG  ASN A   6      25.009   7.181 -12.772  1.00  0.00     0.220 C 
ATOM     53  ND2 ASN A   6      24.753   8.089 -13.834  1.00  0.00    -0.370 N 
ATOM     54  OD1 ASN A   6      24.051   6.563 -12.238  1.00  0.00    -0.275 OA
ATOM     55  H   UNL     1      23.775   8.258 -14.156  1.00  0.00     0.159 HD
ATOM     56  H   UNL     1      25.533   8.595 -14.309  1.00  0.00     0.159 HD
ENDBRANCH  51  52
ENDBRANCH  46  51
ENDBRANCH  43  46
ENDBRANCH  41  42
BRANCH  41  57
ATOM     57  CB  ARG A   5      25.856   9.600  -6.792  1.00  0.00     0.037 C 
BRANCH  57  58
ATOM     58  CG  ARG A   5      25.162  10.857  -6.270  1.00  0.00     0.024 C 
BRANCH  58  59
ATOM     59  CD  ARG A   5      25.838  11.390  -5.014  1.00  0.00     0.116 C 
BRANCH  59  60
ATOM     60  NE  ARG A   5      25.377  10.686  -3.820  1.00  0.00    -0.357 N 
ATOM     61  CZ  ARG A   5      25.469  11.281  -2.527  1.00  0.00     0.185 C 
ATOM     62  NH2 ARG A   5      26.107  12.546  -2.352  1.00  0.00    -0.370 N 
ATOM     63  H   UNL     1      24.894   9.763  -3.911  1.00  0.00     0.163 HD
ATOM     64  H   UNL     1      26.080  13.024  -1.424  1.00  0.00     0.159 HD
ATOM     65  H   UNL     1      26.696  12.982  -3.094  1.00  0.00     0.159 HD
BRANCH  61  66
ATOM     66  NH1 ARG A   5      24.955  10.672  -1.507  1.00  0.00    -0.270 NA
ATOM     67  H   UNL     1      24.995  11.077  -0.545  1.00  0.00     0.191 HD
ENDBRANCH  61  66
ENDBRANCH  59  60
ENDBRANCH  58  59
ENDBRANCH  57  58
ENDBRANCH  41  57
ENDBRANCH  38  41
ENDBRANCH  35  37
ENDBRANCH   3  35
TORSDOF 27
