REMARK SMILES N=C(N)NCCC[C@H](NC(=O)[C@@H]1CCCN1C(=O)CNC(=O)[C@H](Cc1ccccc1)NC(=O)[C@@H](N)CO)C(=O)N[C@@H](CC(N)=O)C(=O)O
REMARK SMILES IDX 16 1 12 2 13 3 14 4 15 5 17 6 18 7 19 8 20 9 21 10 22 11
REMARK SMILES IDX 23 13 31 14 32 15 33 16 34 18 35 19 36 22 37 23 24 25 25 26
REMARK SMILES IDX 26 27 30 28 27 29 29 30 28 31 10 32 9 33 11 34 8 36 38 37
REMARK SMILES IDX 40 38 39 39 41 41 46 42 47 43 48 44 42 46 43 47 44 48 45 49
REMARK SMILES IDX 7 52 6 53 5 54 4 55 2 56 3 57 1 61
REMARK H PARENT 20 12 31 17 35 20 35 21 37 24 9 35 40 40 48 45 44 50 44 51
REMARK H PARENT 4 58 3 59 3 60 1 62
ROOT
ATOM      1  N   PRO A   4      20.663   9.869  -7.778  1.00  0.00    -0.329 N 
ATOM      2  CA  PRO A   4      21.333  10.923  -8.534  1.00  0.00     0.174 C 
ATOM      3  CB  PRO A   4      22.375  10.203  -9.391  1.00  0.00     0.037 C 
ATOM      4  CG  PRO A   4      21.896   8.759  -9.484  1.00  0.00     0.024 C 
ATOM      5  CD  PRO A   4      21.034   8.541  -8.248  1.00  0.00     0.120 C 
ENDROOT
BRANCH   1   6
ATOM      6  C   GLY A   3      20.061  10.073  -6.496  1.00  0.00     0.242 C 
ATOM      7  O   GLY A   3      20.151   9.177  -5.612  1.00  0.00    -0.273 OA
BRANCH   6   8
ATOM      8  CA  GLY A   3      19.355  11.355  -6.190  1.00  0.00     0.216 C 
BRANCH   8   9
ATOM      9  N   GLY A   3      18.121  11.074  -5.491  1.00  0.00    -0.345 N 
ATOM     10  C   PHE A   2      16.903  11.754  -5.774  1.00  0.00     0.243 C 
ATOM     11  O   PHE A   2      16.907  12.790  -6.495  1.00  0.00    -0.273 OA
ATOM     12  H   UNL     1      18.228  10.600  -4.568  1.00  0.00     0.164 HD
BRANCH  10  13
ATOM     13  CA  PHE A   2      15.664  11.315  -5.061  1.00  0.00     0.175 C 
BRANCH  13  14
ATOM     14  N   PHE A   2      14.464  11.738  -5.771  1.00  0.00    -0.343 N 
ATOM     15  C   SER A   1      13.918  13.046  -5.637  1.00  0.00     0.239 C 
ATOM     16  O   SER A   1      14.449  13.866  -4.839  1.00  0.00    -0.273 OA
ATOM     17  H   UNL     1      13.882  10.997  -6.219  1.00  0.00     0.164 HD
BRANCH  15  18
ATOM     18  CA  SER A   1      12.657  13.405  -6.386  1.00  0.00     0.167 C 
BRANCH  18  19
ATOM     19  N   SER A   1      12.470  14.858  -6.384  1.00  0.00    -0.318 NA
ATOM     20  H   UNL     1      12.306  15.172  -5.399  1.00  0.00     0.119 HD
ATOM     21  H   UNL     1      11.585  15.085  -6.893  1.00  0.00     0.119 HD
ENDBRANCH  18  19
BRANCH  18  22
ATOM     22  CB  SER A   1      12.698  12.890  -7.844  1.00  0.00     0.184 C 
BRANCH  22  23
ATOM     23  OG  SER A   1      11.439  13.042  -8.439  1.00  0.00    -0.394 OA
ATOM     24  H   UNL     1      11.545  12.781  -9.391  1.00  0.00     0.210 HD
ENDBRANCH  22  23
ENDBRANCH  18  22
ENDBRANCH  15  18
ENDBRANCH  13  14
BRANCH  13  25
ATOM     25  CB  PHE A   2      15.631   9.778  -4.888  1.00  0.00     0.070 C 
BRANCH  25  26
ATOM     26  CG  PHE A   2      14.458   9.290  -4.087  1.00  0.00    -0.045 A 
ATOM     27  CD1 PHE A   2      13.911  10.050  -3.034  1.00  0.00     0.004 A 
ATOM     28  CD2 PHE A   2      13.978   7.992  -4.310  1.00  0.00     0.004 A 
ATOM     29  CE1 PHE A   2      12.875   9.539  -2.262  1.00  0.00     0.000 A 
ATOM     30  CE2 PHE A   2      12.944   7.481  -3.525  1.00  0.00     0.000 A 
ATOM     31  CZ  PHE A   2      12.391   8.256  -2.505  1.00  0.00     0.000 A 
ENDBRANCH  25  26
ENDBRANCH  13  25
ENDBRANCH  10  13
ENDBRANCH   8   9
ENDBRANCH   6   8
ENDBRANCH   1   6
BRANCH   2  32
ATOM     32  C   PRO A   4      20.349  11.668  -9.399  1.00  0.00     0.243 C 
ATOM     33  N   ARG A   5      20.241  13.095  -9.293  1.00  0.00    -0.343 N 
ATOM     34  O   PRO A   4      19.628  11.034 -10.218  1.00  0.00    -0.273 OA
ATOM     35  H   UNL     1      20.784  13.575  -8.541  1.00  0.00     0.164 HD
BRANCH  33  36
ATOM     36  CA  ARG A   5      19.357  13.879 -10.163  1.00  0.00     0.171 C 
BRANCH  36  37
ATOM     37  C   ARG A   5      19.830  13.840 -11.596  1.00  0.00     0.243 C 
ATOM     38  N   ASN A   6      21.231  13.780 -11.913  1.00  0.00    -0.341 N 
ATOM     39  O   ARG A   5      18.976  13.914 -12.522  1.00  0.00    -0.273 OA
ATOM     40  H   UNL     1      21.923  13.688 -11.136  1.00  0.00     0.164 HD
BRANCH  38  41
ATOM     41  CA  ASN A   6      21.719  13.877 -13.292  1.00  0.00     0.201 C 
BRANCH  41  42
ATOM     42  C   ASN A   6      21.488  12.572 -13.999  1.00  0.00     0.326 C 
ATOM     43  O   ASN A   6      21.024  12.562 -15.172  1.00  0.00    -0.250 OA
BRANCH  42  44
ATOM     44  OXT ASN A   6      21.824  11.373 -13.373  1.00  0.00    -0.480 OA
ATOM     45  H   UNL     1      21.688  10.488 -13.843  1.00  0.00     0.296 HD
ENDBRANCH  42  44
ENDBRANCH  41  42
BRANCH  41  46
ATOM     46  CB  ASN A   6      23.215  14.243 -13.306  1.00  0.00     0.136 C 
BRANCH  46  47
ATOM     47  CG  ASN A   6      23.670  14.629 -14.684  1.00  0.00     0.220 C 
ATOM     48  ND2 ASN A   6      23.452  15.954 -15.168  1.00  0.00    -0.370 N 
ATOM     49  OD1 ASN A   6      24.209  13.769 -15.430  1.00  0.00    -0.275 OA
ATOM     50  H   UNL     1      23.740  16.216 -16.139  1.00  0.00     0.159 HD
ATOM     51  H   UNL     1      22.991  16.669 -14.565  1.00  0.00     0.159 HD
ENDBRANCH  46  47
ENDBRANCH  41  46
ENDBRANCH  38  41
ENDBRANCH  36  37
BRANCH  36  52
ATOM     52  CB  ARG A   5      19.201  15.329  -9.649  1.00  0.00     0.037 C 
BRANCH  52  53
ATOM     53  CG  ARG A   5      20.491  16.183  -9.710  1.00  0.00     0.024 C 
BRANCH  53  54
ATOM     54  CD  ARG A   5      20.538  17.081 -10.956  1.00  0.00     0.116 C 
BRANCH  54  55
ATOM     55  NE  ARG A   5      21.849  17.720 -11.084  1.00  0.00    -0.357 N 
ATOM     56  CZ  ARG A   5      22.351  18.752 -10.214  1.00  0.00     0.185 C 
ATOM     57  NH2 ARG A   5      23.730  19.121 -10.291  1.00  0.00    -0.370 N 
ATOM     58  H   UNL     1      22.473  17.386 -11.855  1.00  0.00     0.163 HD
ATOM     59  H   UNL     1      24.372  18.636 -10.957  1.00  0.00     0.159 HD
ATOM     60  H   UNL     1      24.118  19.863  -9.666  1.00  0.00     0.159 HD
BRANCH  56  61
ATOM     61  NH1 ARG A   5      21.580  19.374  -9.378  1.00  0.00    -0.270 NA
ATOM     62  H   UNL     1      20.559  19.181  -9.274  1.00  0.00     0.191 HD
ENDBRANCH  56  61
ENDBRANCH  54  55
ENDBRANCH  53  54
ENDBRANCH  52  53
ENDBRANCH  36  52
ENDBRANCH  33  36
ENDBRANCH   2  32
TORSDOF 24
