REMARK SMILES CC(C)C[C@H](NC(=O)[C@H](CO)NC(=O)[C@H](Cc1ccccc1)NC(=O)[C@@H](N)CO)C(=O)N[C@@H](CCCNC(=N)N)C(=O)N[C@@H](CC(N)=O)C(=O)O
REMARK SMILES IDX 7 1 8 2 6 3 9 5 12 6 13 7 14 8 15 10 23 11 24 12 25 13 26 15
REMARK SMILES IDX 27 16 28 19 29 20 16 22 17 23 18 24 22 25 19 26 21 27 20 28
REMARK SMILES IDX 10 29 11 30 5 32 30 33 32 34 31 35 33 37 41 38 43 39 42 40
REMARK SMILES IDX 44 42 49 43 50 44 51 45 45 47 46 48 47 49 48 50 34 53 35 54
REMARK SMILES IDX 36 55 37 56 38 57 40 58 39 62 4 64 2 65 1 66 3 67
REMARK H PARENT 6 4 12 9 23 14 27 17 27 18 29 21 11 31 32 36 43 41 51 46 47 51
REMARK H PARENT 47 52 37 59 40 60 40 61 39 63
ROOT
ATOM      1  C   SER A   3      20.048  10.098  -6.461  1.00  0.00     0.245 C 
ATOM      2  O   SER A   3      20.174   9.193  -5.589  1.00  0.00    -0.273 OA
ATOM      3  N   LEU A   4      20.561   9.920  -7.772  1.00  0.00    -0.342 N 
ATOM      4  H   UNL     1      20.393  10.656  -8.496  1.00  0.00     0.164 HD
ENDROOT
BRANCH   1   5
ATOM      5  CA  SER A   3      19.343  11.371  -6.140  1.00  0.00     0.197 C 
BRANCH   5   6
ATOM      6  N   SER A   3      18.095  11.056  -5.495  1.00  0.00    -0.340 N 
ATOM      7  C   PHE A   2      16.889  11.751  -5.772  1.00  0.00     0.243 C 
ATOM      8  O   PHE A   2      16.901  12.791  -6.485  1.00  0.00    -0.273 OA
ATOM      9  H   UNL     1      18.180  10.533  -4.597  1.00  0.00     0.164 HD
BRANCH   7  10
ATOM     10  CA  PHE A   2      15.653  11.313  -5.059  1.00  0.00     0.175 C 
BRANCH  10  11
ATOM     11  N   PHE A   2      14.456  11.739  -5.769  1.00  0.00    -0.343 N 
ATOM     12  C   SER A   1      13.917  13.049  -5.633  1.00  0.00     0.239 C 
ATOM     13  O   SER A   1      14.448  13.866  -4.831  1.00  0.00    -0.273 OA
ATOM     14  H   UNL     1      13.872  11.001  -6.217  1.00  0.00     0.164 HD
BRANCH  12  15
ATOM     15  CA  SER A   1      12.661  13.412  -6.387  1.00  0.00     0.167 C 
BRANCH  15  16
ATOM     16  N   SER A   1      12.457  14.862  -6.398  1.00  0.00    -0.318 NA
ATOM     17  H   UNL     1      13.318  15.336  -6.758  1.00  0.00     0.119 HD
ATOM     18  H   UNL     1      12.292  15.192  -5.418  1.00  0.00     0.119 HD
ENDBRANCH  15  16
BRANCH  15  19
ATOM     19  CB  SER A   1      12.690  12.888  -7.841  1.00  0.00     0.184 C 
BRANCH  19  20
ATOM     20  OG  SER A   1      11.437  13.050  -8.444  1.00  0.00    -0.394 OA
ATOM     21  H   UNL     1      11.385  13.993  -8.750  1.00  0.00     0.210 HD
ENDBRANCH  19  20
ENDBRANCH  15  19
ENDBRANCH  12  15
ENDBRANCH  10  11
BRANCH  10  22
ATOM     22  CB  PHE A   2      15.617   9.774  -4.891  1.00  0.00     0.070 C 
BRANCH  22  23
ATOM     23  CG  PHE A   2      14.447   9.289  -4.089  1.00  0.00    -0.045 A 
ATOM     24  CD1 PHE A   2      13.905  10.047  -3.033  1.00  0.00     0.004 A 
ATOM     25  CD2 PHE A   2      13.970   7.990  -4.310  1.00  0.00     0.004 A 
ATOM     26  CE1 PHE A   2      12.870   9.536  -2.261  1.00  0.00     0.000 A 
ATOM     27  CE2 PHE A   2      12.941   7.477  -3.522  1.00  0.00     0.000 A 
ATOM     28  CZ  PHE A   2      12.387   8.253  -2.503  1.00  0.00     0.000 A 
ENDBRANCH  22  23
ENDBRANCH  10  22
ENDBRANCH   7  10
ENDBRANCH   5   6
BRANCH   5  29
ATOM     29  CB  SER A   3      20.184  12.265  -5.227  1.00  0.00     0.191 C 
BRANCH  29  30
ATOM     30  OG  SER A   3      20.511  11.619  -4.023  1.00  0.00    -0.394 OA
ATOM     31  H   UNL     1      19.803  11.852  -3.367  1.00  0.00     0.210 HD
ENDBRANCH  29  30
ENDBRANCH   5  29
ENDBRANCH   1   5
BRANCH   3  32
ATOM     32  CA  LEU A   4      21.347   8.759  -8.137  1.00  0.00     0.171 C 
BRANCH  32  33
ATOM     33  C   LEU A   4      22.712   9.216  -8.519  1.00  0.00     0.243 C 
ATOM     34  N   ARG A   5      23.822   8.720  -7.785  1.00  0.00    -0.343 N 
ATOM     35  O   LEU A   4      22.876  10.032  -9.467  1.00  0.00    -0.273 OA
ATOM     36  H   UNL     1      23.667   8.029  -7.015  1.00  0.00     0.164 HD
BRANCH  34  37
ATOM     37  CA  ARG A   5      25.185   9.122  -8.073  1.00  0.00     0.171 C 
BRANCH  37  38
ATOM     38  C   ARG A   5      25.899   7.968  -8.685  1.00  0.00     0.243 C 
ATOM     39  N   ASN A   6      25.913   7.864 -10.102  1.00  0.00    -0.341 N 
ATOM     40  O   ARG A   5      26.447   7.087  -7.969  1.00  0.00    -0.273 OA
ATOM     41  H   UNL     1      25.489   8.647 -10.651  1.00  0.00     0.164 HD
BRANCH  39  42
ATOM     42  CA  ASN A   6      26.542   6.751 -10.804  1.00  0.00     0.201 C 
BRANCH  42  43
ATOM     43  C   ASN A   6      27.993   6.642 -10.416  1.00  0.00     0.326 C 
ATOM     44  O   ASN A   6      28.794   7.579 -10.677  1.00  0.00    -0.250 OA
BRANCH  43  45
ATOM     45  OXT ASN A   6      28.451   5.499  -9.768  1.00  0.00    -0.480 OA
ATOM     46  H   UNL     1      29.424   5.409  -9.499  1.00  0.00     0.296 HD
ENDBRANCH  43  45
ENDBRANCH  42  43
BRANCH  42  47
ATOM     47  CB  ASN A   6      26.424   6.947 -12.323  1.00  0.00     0.136 C 
BRANCH  47  48
ATOM     48  CG  ASN A   6      25.010   7.180 -12.773  1.00  0.00     0.220 C 
ATOM     49  ND2 ASN A   6      24.753   8.090 -13.833  1.00  0.00    -0.370 N 
ATOM     50  OD1 ASN A   6      24.053   6.558 -12.243  1.00  0.00    -0.275 OA
ATOM     51  H   UNL     1      25.533   8.600 -14.306  1.00  0.00     0.159 HD
ATOM     52  H   UNL     1      23.775   8.258 -14.156  1.00  0.00     0.159 HD
ENDBRANCH  47  48
ENDBRANCH  42  47
ENDBRANCH  39  42
ENDBRANCH  37  38
BRANCH  37  53
ATOM     53  CB  ARG A   5      25.863   9.605  -6.796  1.00  0.00     0.037 C 
BRANCH  53  54
ATOM     54  CG  ARG A   5      25.166  10.859  -6.270  1.00  0.00     0.024 C 
BRANCH  54  55
ATOM     55  CD  ARG A   5      25.842  11.390  -5.014  1.00  0.00     0.116 C 
BRANCH  55  56
ATOM     56  NE  ARG A   5      25.378  10.687  -3.820  1.00  0.00    -0.357 N 
ATOM     57  CZ  ARG A   5      25.470  11.282  -2.526  1.00  0.00     0.185 C 
ATOM     58  NH2 ARG A   5      26.109  12.546  -2.351  1.00  0.00    -0.370 N 
ATOM     59  H   UNL     1      24.898   9.762  -3.912  1.00  0.00     0.163 HD
ATOM     60  H   UNL     1      26.699  12.981  -3.092  1.00  0.00     0.159 HD
ATOM     61  H   UNL     1      26.084  13.022  -1.422  1.00  0.00     0.159 HD
BRANCH  57  62
ATOM     62  NH1 ARG A   5      24.956  10.671  -1.506  1.00  0.00    -0.270 NA
ATOM     63  H   UNL     1      24.999  11.075  -0.544  1.00  0.00     0.191 HD
ENDBRANCH  57  62
ENDBRANCH  55  56
ENDBRANCH  54  55
ENDBRANCH  53  54
ENDBRANCH  37  53
ENDBRANCH  34  37
ENDBRANCH  32  33
BRANCH  32  64
ATOM     64  CB  LEU A   4      20.654   7.998  -9.270  1.00  0.00     0.038 C 
BRANCH  64  65
ATOM     65  CG  LEU A   4      21.448   6.771  -9.768  1.00  0.00    -0.015 C 
ATOM     66  CD1 LEU A   4      21.762   5.778  -8.639  1.00  0.00     0.007 C 
ATOM     67  CD2 LEU A   4      20.662   6.067 -10.877  1.00  0.00     0.007 C 
ENDBRANCH  64  65
ENDBRANCH  32  64
ENDBRANCH   3  32
TORSDOF 28
