REMARK SMILES CC(C)C[C@H](NC(=O)[C@H](Cc1c[nH]cn1)NC(=O)[C@H](Cc1ccccc1)NC(=O)[C@@H](N)Cc1c[nH]cn1)C(=O)N[C@@H](CCCNC(=N)N)C(=O)N[C@@H](CC(N)=O)C(=O)O
REMARK SMILES IDX 7 1 8 2 6 3 9 5 16 6 17 7 18 8 19 10 27 11 28 12 29 13 30 15
REMARK SMILES IDX 31 16 32 19 33 20 37 21 34 22 36 23 35 24 20 26 21 27 22 28
REMARK SMILES IDX 26 29 23 30 25 31 24 32 10 33 11 34 15 35 12 36 14 37 13 38
REMARK SMILES IDX 5 40 38 41 40 42 39 43 41 45 49 46 51 47 50 48 52 50 57 51
REMARK SMILES IDX 58 52 59 53 53 55 54 56 55 57 56 58 42 61 43 62 44 63 45 64
REMARK SMILES IDX 46 65 48 66 47 70 4 72 2 73 1 74 3 75
REMARK H PARENT 6 4 16 9 27 14 31 17 31 18 35 25 13 39 40 44 51 49 59 54 55 59
REMARK H PARENT 55 60 45 67 48 68 48 69 47 71
ROOT
ATOM      1  C   HIS A   3      20.050  10.081  -6.463  1.00  0.00     0.243 C 
ATOM      2  O   HIS A   3      20.170   9.155  -5.617  1.00  0.00    -0.273 OA
ATOM      3  N   LEU A   4      20.565   9.923  -7.774  1.00  0.00    -0.342 N 
ATOM      4  H   UNL     1      20.399  10.665  -8.492  1.00  0.00     0.164 HD
ENDROOT
BRANCH   1   5
ATOM      5  CA  HIS A   3      19.342  11.344  -6.118  1.00  0.00     0.177 C 
BRANCH   5   6
ATOM      6  N   HIS A   3      18.075  11.032  -5.519  1.00  0.00    -0.342 N 
ATOM      7  C   PHE A   2      16.884  11.750  -5.781  1.00  0.00     0.243 C 
ATOM      8  O   PHE A   2      16.908  12.797  -6.484  1.00  0.00    -0.273 OA
ATOM      9  H   UNL     1      18.117  10.470  -4.654  1.00  0.00     0.164 HD
BRANCH   7  10
ATOM     10  CA  PHE A   2      15.646  11.318  -5.069  1.00  0.00     0.175 C 
BRANCH  10  11
ATOM     11  N   PHE A   2      14.463  11.752  -5.792  1.00  0.00    -0.343 N 
ATOM     12  C   HIS A   1      13.904  13.050  -5.628  1.00  0.00     0.237 C 
ATOM     13  O   HIS A   1      14.430  13.862  -4.818  1.00  0.00    -0.273 OA
ATOM     14  H   UNL     1      14.009  11.069  -6.432  1.00  0.00     0.164 HD
BRANCH  12  15
ATOM     15  CA  HIS A   1      12.653  13.424  -6.381  1.00  0.00     0.147 C 
BRANCH  15  16
ATOM     16  N   HIS A   1      12.496  14.878  -6.381  1.00  0.00    -0.320 NA
ATOM     17  H   UNL     1      13.216  15.305  -7.010  1.00  0.00     0.119 HD
ATOM     18  H   UNL     1      11.555  15.118  -6.769  1.00  0.00     0.119 HD
ENDBRANCH  15  16
BRANCH  15  19
ATOM     19  CB  HIS A   1      12.662  12.885  -7.839  1.00  0.00     0.086 C 
BRANCH  19  20
ATOM     20  CG  HIS A   1      12.007  11.538  -7.972  1.00  0.00     0.060 A 
ATOM     21  ND1 HIS A   1      10.778  11.241  -7.503  1.00  0.00    -0.242 NA
ATOM     22  CD2 HIS A   1      12.520  10.455  -8.652  1.00  0.00     0.107 A 
ATOM     23  CE1 HIS A   1      10.581   9.964  -7.891  1.00  0.00     0.196 A 
ATOM     24  NE2 HIS A   1      11.619   9.464  -8.588  1.00  0.00    -0.351 N 
ATOM     25  H   UNL     1      11.702   8.508  -9.000  1.00  0.00     0.167 HD
ENDBRANCH  19  20
ENDBRANCH  15  19
ENDBRANCH  12  15
ENDBRANCH  10  11
BRANCH  10  26
ATOM     26  CB  PHE A   2      15.596   9.777  -4.902  1.00  0.00     0.070 C 
BRANCH  26  27
ATOM     27  CG  PHE A   2      14.431   9.295  -4.099  1.00  0.00    -0.045 A 
ATOM     28  CD1 PHE A   2      13.897  10.050  -3.038  1.00  0.00     0.004 A 
ATOM     29  CD2 PHE A   2      13.961   7.992  -4.313  1.00  0.00     0.004 A 
ATOM     30  CE1 PHE A   2      12.868   9.537  -2.259  1.00  0.00     0.000 A 
ATOM     31  CE2 PHE A   2      12.937   7.477  -3.520  1.00  0.00     0.000 A 
ATOM     32  CZ  PHE A   2      12.386   8.253  -2.499  1.00  0.00     0.000 A 
ENDBRANCH  26  27
ENDBRANCH  10  26
ENDBRANCH   7  10
ENDBRANCH   5   6
BRANCH   5  33
ATOM     33  CB  HIS A   3      20.162  12.238  -5.184  1.00  0.00     0.093 C 
BRANCH  33  34
ATOM     34  CG  HIS A   3      20.507  11.759  -3.782  1.00  0.00     0.061 A 
ATOM     35  ND1 HIS A   3      21.273  12.537  -2.986  1.00  0.00    -0.242 NA
ATOM     36  CD2 HIS A   3      20.209  10.590  -3.086  1.00  0.00     0.107 A 
ATOM     37  CE1 HIS A   3      21.422  11.840  -1.844  1.00  0.00     0.196 A 
ATOM     38  NE2 HIS A   3      20.788  10.659  -1.878  1.00  0.00    -0.351 N 
ATOM     39  H   UNL     1      20.757   9.939  -1.123  1.00  0.00     0.167 HD
ENDBRANCH  33  34
ENDBRANCH   5  33
ENDBRANCH   1   5
BRANCH   3  40
ATOM     40  CA  LEU A   4      21.349   8.761  -8.144  1.00  0.00     0.171 C 
BRANCH  40  41
ATOM     41  C   LEU A   4      22.714   9.217  -8.523  1.00  0.00     0.243 C 
ATOM     42  N   ARG A   5      23.822   8.721  -7.786  1.00  0.00    -0.343 N 
ATOM     43  O   LEU A   4      22.879  10.034  -9.470  1.00  0.00    -0.273 OA
ATOM     44  H   UNL     1      23.666   8.031  -7.016  1.00  0.00     0.164 HD
BRANCH  42  45
ATOM     45  CA  ARG A   5      25.186   9.122  -8.073  1.00  0.00     0.171 C 
BRANCH  45  46
ATOM     46  C   ARG A   5      25.900   7.968  -8.685  1.00  0.00     0.243 C 
ATOM     47  N   ASN A   6      25.913   7.864 -10.102  1.00  0.00    -0.341 N 
ATOM     48  O   ARG A   5      26.447   7.087  -7.969  1.00  0.00    -0.273 OA
ATOM     49  H   UNL     1      25.489   8.647 -10.651  1.00  0.00     0.164 HD
BRANCH  47  50
ATOM     50  CA  ASN A   6      26.542   6.751 -10.804  1.00  0.00     0.201 C 
BRANCH  50  51
ATOM     51  C   ASN A   6      27.993   6.642 -10.416  1.00  0.00     0.326 C 
ATOM     52  O   ASN A   6      28.794   7.579 -10.677  1.00  0.00    -0.250 OA
BRANCH  51  53
ATOM     53  OXT ASN A   6      28.451   5.499  -9.768  1.00  0.00    -0.480 OA
ATOM     54  H   UNL     1      29.424   5.409  -9.500  1.00  0.00     0.296 HD
ENDBRANCH  51  53
ENDBRANCH  50  51
BRANCH  50  55
ATOM     55  CB  ASN A   6      26.424   6.947 -12.323  1.00  0.00     0.136 C 
BRANCH  55  56
ATOM     56  CG  ASN A   6      25.010   7.180 -12.773  1.00  0.00     0.220 C 
ATOM     57  ND2 ASN A   6      24.753   8.090 -13.833  1.00  0.00    -0.370 N 
ATOM     58  OD1 ASN A   6      24.053   6.558 -12.243  1.00  0.00    -0.275 OA
ATOM     59  H   UNL     1      25.533   8.600 -14.306  1.00  0.00     0.159 HD
ATOM     60  H   UNL     1      23.775   8.258 -14.156  1.00  0.00     0.159 HD
ENDBRANCH  55  56
ENDBRANCH  50  55
ENDBRANCH  47  50
ENDBRANCH  45  46
BRANCH  45  61
ATOM     61  CB  ARG A   5      25.863   9.605  -6.795  1.00  0.00     0.037 C 
BRANCH  61  62
ATOM     62  CG  ARG A   5      25.166  10.859  -6.270  1.00  0.00     0.024 C 
BRANCH  62  63
ATOM     63  CD  ARG A   5      25.840  11.390  -5.013  1.00  0.00     0.116 C 
BRANCH  63  64
ATOM     64  NE  ARG A   5      25.376  10.687  -3.820  1.00  0.00    -0.357 N 
ATOM     65  CZ  ARG A   5      25.467  11.282  -2.526  1.00  0.00     0.185 C 
ATOM     66  NH2 ARG A   5      26.107  12.546  -2.351  1.00  0.00    -0.370 N 
ATOM     67  H   UNL     1      24.894   9.763  -3.912  1.00  0.00     0.163 HD
ATOM     68  H   UNL     1      26.698  12.981  -3.091  1.00  0.00     0.159 HD
ATOM     69  H   UNL     1      26.079  13.023  -1.422  1.00  0.00     0.159 HD
BRANCH  65  70
ATOM     70  NH1 ARG A   5      24.953  10.672  -1.507  1.00  0.00    -0.270 NA
ATOM     71  H   UNL     1      24.993  11.076  -0.544  1.00  0.00     0.191 HD
ENDBRANCH  65  70
ENDBRANCH  63  64
ENDBRANCH  62  63
ENDBRANCH  61  62
ENDBRANCH  45  61
ENDBRANCH  42  45
ENDBRANCH  40  41
BRANCH  40  72
ATOM     72  CB  LEU A   4      20.655   8.000  -9.275  1.00  0.00     0.038 C 
BRANCH  72  73
ATOM     73  CG  LEU A   4      21.448   6.771  -9.770  1.00  0.00    -0.015 C 
ATOM     74  CD1 LEU A   4      21.761   5.779  -8.640  1.00  0.00     0.007 C 
ATOM     75  CD2 LEU A   4      20.661   6.067 -10.878  1.00  0.00     0.007 C 
ENDBRANCH  72  73
ENDBRANCH  40  72
ENDBRANCH   3  40
TORSDOF 28
