REMARK SMILES CC(C)C[C@H](NC(=O)[C@H](CCCCN)NC(=O)[C@H](Cc1ccccc1)NC(=O)[C@@H](N)CO)C(=O)N[C@@H](CCCNC(=N)N)C(=O)N[C@@H](CCCNC(=N)N)C(=O)O
REMARK SMILES IDX 33 1 34 2 35 3 5 5 6 6 7 7 8 8 9 10 15 11 16 12 17 13 18 15
REMARK SMILES IDX 26 16 27 17 28 18 29 20 30 21 31 24 32 25 19 27 20 28 21 29
REMARK SMILES IDX 25 30 22 31 24 32 23 33 10 34 11 35 12 36 13 37 14 38 4 41
REMARK SMILES IDX 2 42 1 43 3 44 36 45 44 46 46 47 45 48 47 50 55 51 56 52
REMARK SMILES IDX 57 53 48 55 49 56 50 57 51 58 52 59 54 60 53 64 37 66 38 67
REMARK SMILES IDX 39 68 40 69 41 70 43 71 42 75
REMARK H PARENT 35 4 6 9 15 14 26 19 30 22 30 23 32 26 14 39 14 40 46 49 57 54
REMARK H PARENT 51 61 54 62 54 63 53 65 40 72 43 73 43 74 42 76
ROOT
ATOM      1  C   LEU A   4       0.953  -0.094   1.127  1.00  0.00     0.243 C 
ATOM      2  O   LEU A   4       0.952  -1.350   1.276  1.00  0.00    -0.273 OA
ATOM      3  N   ARG A   5       1.860   0.531   0.206  1.00  0.00    -0.343 N 
ATOM      4  H   UNL     1       1.774   1.567   0.046  1.00  0.00     0.164 HD
ENDROOT
BRANCH   1   5
ATOM      5  CA  LEU A   4       0.035   0.764   1.963  1.00  0.00     0.171 C 
BRANCH   5   6
ATOM      6  N   LEU A   4      -1.236   0.083   2.245  1.00  0.00    -0.343 N 
ATOM      7  C   LYS A   3      -2.090  -0.392   1.191  1.00  0.00     0.243 C 
ATOM      8  O   LYS A   3      -1.717  -0.309  -0.012  1.00  0.00    -0.273 OA
ATOM      9  H   UNL     1      -1.604   0.050   3.221  1.00  0.00     0.164 HD
BRANCH   7  10
ATOM     10  CA  LYS A   3      -3.414  -1.040   1.525  1.00  0.00     0.171 C 
BRANCH  10  11
ATOM     11  N   LYS A   3      -4.241  -1.172   0.320  1.00  0.00    -0.343 N 
ATOM     12  C   PHE A   2      -5.226  -0.192  -0.043  1.00  0.00     0.243 C 
ATOM     13  O   PHE A   2      -5.674   0.604   0.823  1.00  0.00    -0.273 OA
ATOM     14  H   UNL     1      -3.944  -1.849  -0.415  1.00  0.00     0.164 HD
BRANCH  12  15
ATOM     15  CA  PHE A   2      -5.686  -0.077  -1.473  1.00  0.00     0.175 C 
BRANCH  15  16
ATOM     16  N   PHE A   2      -7.089   0.349  -1.532  1.00  0.00    -0.343 N 
ATOM     17  C   SER A   1      -8.164  -0.562  -1.800  1.00  0.00     0.239 C 
ATOM     18  O   SER A   1      -7.936  -1.798  -1.933  1.00  0.00    -0.273 OA
ATOM     19  H   UNL     1      -7.327   1.329  -1.260  1.00  0.00     0.164 HD
BRANCH  17  20
ATOM     20  CA  SER A   1      -9.574  -0.056  -1.954  1.00  0.00     0.167 C 
BRANCH  20  21
ATOM     21  N   SER A   1      -9.992   0.632  -0.729  1.00  0.00    -0.318 NA
ATOM     22  H   UNL     1     -10.990   0.927  -0.842  1.00  0.00     0.119 HD
ATOM     23  H   UNL     1      -9.993  -0.066   0.047  1.00  0.00     0.119 HD
ENDBRANCH  20  21
BRANCH  20  24
ATOM     24  CB  SER A   1      -9.656   0.891  -3.163  1.00  0.00     0.184 C 
BRANCH  24  25
ATOM     25  OG  SER A   1     -10.990   1.205  -3.456  1.00  0.00    -0.394 OA
ATOM     26  H   UNL     1     -11.359   0.429  -3.948  1.00  0.00     0.210 HD
ENDBRANCH  24  25
ENDBRANCH  20  24
ENDBRANCH  17  20
ENDBRANCH  15  16
BRANCH  15  27
ATOM     27  CB  PHE A   2      -4.785   0.866  -2.298  1.00  0.00     0.070 C 
BRANCH  27  28
ATOM     28  CG  PHE A   2      -4.728   2.279  -1.770  1.00  0.00    -0.045 A 
ATOM     29  CD1 PHE A   2      -3.765   2.640  -0.814  1.00  0.00     0.004 A 
ATOM     30  CD2 PHE A   2      -5.639   3.249  -2.224  1.00  0.00     0.004 A 
ATOM     31  CE1 PHE A   2      -3.719   3.943  -0.309  1.00  0.00     0.000 A 
ATOM     32  CE2 PHE A   2      -5.595   4.552  -1.713  1.00  0.00     0.000 A 
ATOM     33  CZ  PHE A   2      -4.636   4.898  -0.757  1.00  0.00     0.000 A 
ENDBRANCH  27  28
ENDBRANCH  15  27
ENDBRANCH  12  15
ENDBRANCH  10  11
BRANCH  10  34
ATOM     34  CB  LYS A   3      -3.228  -2.404   2.221  1.00  0.00     0.035 C 
BRANCH  34  35
ATOM     35  CG  LYS A   3      -2.336  -3.391   1.447  1.00  0.00     0.004 C 
BRANCH  35  36
ATOM     36  CD  LYS A   3      -2.112  -4.682   2.247  1.00  0.00     0.015 C 
BRANCH  36  37
ATOM     37  CE  LYS A   3      -1.053  -5.593   1.605  1.00  0.00     0.077 C 
BRANCH  37  38
ATOM     38  NZ  LYS A   3      -1.474  -6.114   0.302  1.00  0.00    -0.330 NA
ATOM     39  H   UNL     1      -1.472  -5.332  -0.394  1.00  0.00     0.118 HD
ATOM     40  H   UNL     1      -2.452  -6.488   0.371  1.00  0.00     0.118 HD
ENDBRANCH  37  38
ENDBRANCH  36  37
ENDBRANCH  35  36
ENDBRANCH  34  35
ENDBRANCH  10  34
ENDBRANCH   7  10
ENDBRANCH   5   6
BRANCH   5  41
ATOM     41  CB  LEU A   4       0.733   1.258   3.255  1.00  0.00     0.038 C 
BRANCH  41  42
ATOM     42  CG  LEU A   4       1.538   0.197   4.057  1.00  0.00    -0.015 C 
ATOM     43  CD1 LEU A   4       0.638  -0.889   4.661  1.00  0.00     0.007 C 
ATOM     44  CD2 LEU A   4       2.334   0.886   5.172  1.00  0.00     0.007 C 
ENDBRANCH  41  42
ENDBRANCH   5  41
ENDBRANCH   1   5
BRANCH   3  45
ATOM     45  CA  ARG A   5       2.909  -0.203  -0.510  1.00  0.00     0.171 C 
BRANCH  45  46
ATOM     46  C   ARG A   5       4.261   0.361  -0.143  1.00  0.00     0.243 C 
ATOM     47  N   ARG A   6       5.416  -0.497  -0.097  1.00  0.00    -0.341 N 
ATOM     48  O   ARG A   5       4.373   1.596   0.079  1.00  0.00    -0.273 OA
ATOM     49  H   UNL     1       5.280  -1.515  -0.283  1.00  0.00     0.164 HD
BRANCH  47  50
ATOM     50  CA  ARG A   6       6.790  -0.035   0.137  1.00  0.00     0.192 C 
BRANCH  50  51
ATOM     51  C   ARG A   6       6.999   0.317   1.588  1.00  0.00     0.326 C 
ATOM     52  O   ARG A   6       6.152   1.017   2.207  1.00  0.00    -0.250 OA
BRANCH  51  53
ATOM     53  OXT ARG A   6       8.145  -0.120   2.240  1.00  0.00    -0.480 OA
ATOM     54  H   UNL     1       8.310   0.103   3.218  1.00  0.00     0.296 HD
ENDBRANCH  51  53
ENDBRANCH  50  51
BRANCH  50  55
ATOM     55  CB  ARG A   6       7.162   1.134  -0.806  1.00  0.00     0.039 C 
BRANCH  55  56
ATOM     56  CG  ARG A   6       8.685   1.297  -0.941  1.00  0.00     0.024 C 
BRANCH  56  57
ATOM     57  CD  ARG A   6       9.052   2.462  -1.872  1.00  0.00     0.116 C 
BRANCH  57  58
ATOM     58  NE  ARG A   6       8.577   3.741  -1.336  1.00  0.00    -0.357 N 
ATOM     59  CZ  ARG A   6       9.101   4.382  -0.156  1.00  0.00     0.185 C 
ATOM     60  NH2 ARG A   6       8.395   5.486   0.419  1.00  0.00    -0.370 N 
ATOM     61  H   UNL     1       7.787   4.214  -1.835  1.00  0.00     0.163 HD
ATOM     62  H   UNL     1       8.763   5.968   1.266  1.00  0.00     0.159 HD
ATOM     63  H   UNL     1       7.490   5.806   0.007  1.00  0.00     0.159 HD
BRANCH  59  64
ATOM     64  NH1 ARG A   6      10.209   3.995   0.395  1.00  0.00    -0.270 NA
ATOM     65  H   UNL     1      10.791   3.214   0.027  1.00  0.00     0.191 HD
ENDBRANCH  59  64
ENDBRANCH  57  58
ENDBRANCH  56  57
ENDBRANCH  55  56
ENDBRANCH  50  55
ENDBRANCH  47  50
ENDBRANCH  45  46
BRANCH  45  66
ATOM     66  CB  ARG A   5       2.654  -0.091  -2.025  1.00  0.00     0.037 C 
BRANCH  66  67
ATOM     67  CG  ARG A   5       3.509  -1.043  -2.883  1.00  0.00     0.024 C 
BRANCH  67  68
ATOM     68  CD  ARG A   5       3.184  -2.532  -2.688  1.00  0.00     0.116 C 
BRANCH  68  69
ATOM     69  NE  ARG A   5       1.767  -2.800  -2.956  1.00  0.00    -0.357 N 
ATOM     70  CZ  ARG A   5       0.795  -3.025  -1.921  1.00  0.00     0.185 C 
ATOM     71  NH2 ARG A   5      -0.524  -2.498  -2.070  1.00  0.00    -0.370 N 
ATOM     72  H   UNL     1       1.413  -2.573  -3.911  1.00  0.00     0.163 HD
ATOM     73  H   UNL     1      -0.764  -1.904  -2.895  1.00  0.00     0.159 HD
ATOM     74  H   UNL     1      -1.245  -2.650  -1.325  1.00  0.00     0.159 HD
BRANCH  70  75
ATOM     75  NH1 ARG A   5       1.077  -3.740  -0.878  1.00  0.00    -0.270 NA
ATOM     76  H   UNL     1       2.004  -4.194  -0.730  1.00  0.00     0.191 HD
ENDBRANCH  70  75
ENDBRANCH  68  69
ENDBRANCH  67  68
ENDBRANCH  66  67
ENDBRANCH  45  66
ENDBRANCH   3  45
TORSDOF 34
