REMARK SMILES N=C(N)NCCC[C@H](NC(=O)[C@H](CO)NC(=O)CNC(=O)[C@H](Cc1ccccc1)NC(=O)[C@@H](N)CO)C(=O)N[C@@H](CC(N)=O)C(=O)O
REMARK SMILES IDX 16 1 17 2 15 3 18 5 19 6 20 7 21 8 22 10 30 11 31 12 32 13
REMARK SMILES IDX 33 15 34 16 35 19 36 20 23 22 24 23 25 24 29 25 26 26 28 27
REMARK SMILES IDX 27 28 12 29 10 30 9 31 11 32 8 34 37 35 39 36 38 37 40 39
REMARK SMILES IDX 45 40 46 41 47 42 41 44 42 45 43 46 44 47 7 50 6 51 5 52
REMARK SMILES IDX 4 53 2 54 3 55 1 59 13 61 14 62
REMARK H PARENT 15 4 19 9 30 14 34 17 34 18 36 21 9 33 39 38 47 43 43 48 43 49
REMARK H PARENT 4 56 3 57 3 58 1 60 14 63
ROOT
ATOM      1  C   GLY A   3      20.044  10.095  -6.468  1.00  0.00     0.240 C 
ATOM      2  O   GLY A   3      20.177   9.200  -5.588  1.00  0.00    -0.273 OA
ATOM      3  N   SER A   4      20.555   9.908  -7.779  1.00  0.00    -0.341 N 
ATOM      4  H   UNL     1      20.386  10.642  -8.505  1.00  0.00     0.164 HD
ENDROOT
BRANCH   1   5
ATOM      5  CA  GLY A   3      19.354  11.373  -6.155  1.00  0.00     0.216 C 
BRANCH   5   6
ATOM      6  N   GLY A   3      18.114  11.082  -5.479  1.00  0.00    -0.345 N 
ATOM      7  C   PHE A   2      16.899  11.756  -5.771  1.00  0.00     0.243 C 
ATOM      8  O   PHE A   2      16.904  12.791  -6.493  1.00  0.00    -0.273 OA
ATOM      9  H   UNL     1      18.216  10.608  -4.554  1.00  0.00     0.164 HD
BRANCH   7  10
ATOM     10  CA  PHE A   2      15.661  11.315  -5.060  1.00  0.00     0.175 C 
BRANCH  10  11
ATOM     11  N   PHE A   2      14.462  11.740  -5.770  1.00  0.00    -0.343 N 
ATOM     12  C   SER A   1      13.919  13.048  -5.633  1.00  0.00     0.239 C 
ATOM     13  O   SER A   1      14.448  13.865  -4.831  1.00  0.00    -0.273 OA
ATOM     14  H   UNL     1      13.881  11.000  -6.221  1.00  0.00     0.164 HD
BRANCH  12  15
ATOM     15  CA  SER A   1      12.662  13.411  -6.387  1.00  0.00     0.167 C 
BRANCH  15  16
ATOM     16  N   SER A   1      12.458  14.861  -6.397  1.00  0.00    -0.318 NA
ATOM     17  H   UNL     1      12.292  15.191  -5.418  1.00  0.00     0.119 HD
ATOM     18  H   UNL     1      13.318  15.335  -6.758  1.00  0.00     0.119 HD
ENDBRANCH  15  16
BRANCH  15  19
ATOM     19  CB  SER A   1      12.690  12.886  -7.840  1.00  0.00     0.184 C 
BRANCH  19  20
ATOM     20  OG  SER A   1      11.437  13.050  -8.443  1.00  0.00    -0.394 OA
ATOM     21  H   UNL     1      11.388  13.992  -8.751  1.00  0.00     0.210 HD
ENDBRANCH  19  20
ENDBRANCH  15  19
ENDBRANCH  12  15
ENDBRANCH  10  11
BRANCH  10  22
ATOM     22  CB  PHE A   2      15.629   9.778  -4.890  1.00  0.00     0.070 C 
BRANCH  22  23
ATOM     23  CG  PHE A   2      14.456   9.289  -4.088  1.00  0.00    -0.045 A 
ATOM     24  CD1 PHE A   2      13.910  10.047  -3.033  1.00  0.00     0.004 A 
ATOM     25  CD2 PHE A   2      13.977   7.991  -4.311  1.00  0.00     0.004 A 
ATOM     26  CE1 PHE A   2      12.872   9.537  -2.263  1.00  0.00     0.000 A 
ATOM     27  CE2 PHE A   2      12.944   7.479  -3.524  1.00  0.00     0.000 A 
ATOM     28  CZ  PHE A   2      12.389   8.254  -2.506  1.00  0.00     0.000 A 
ENDBRANCH  22  23
ENDBRANCH  10  22
ENDBRANCH   7  10
ENDBRANCH   5   6
ENDBRANCH   1   5
BRANCH   3  29
ATOM     29  CA  SER A   4      21.338   8.744  -8.148  1.00  0.00     0.197 C 
BRANCH  29  30
ATOM     30  C   SER A   4      22.706   9.198  -8.527  1.00  0.00     0.245 C 
ATOM     31  N   ARG A   5      23.816   8.705  -7.789  1.00  0.00    -0.342 N 
ATOM     32  O   SER A   4      22.872  10.025  -9.465  1.00  0.00    -0.273 OA
ATOM     33  H   UNL     1      23.662   7.982  -7.049  1.00  0.00     0.164 HD
BRANCH  31  34
ATOM     34  CA  ARG A   5      25.179   9.116  -8.072  1.00  0.00     0.171 C 
BRANCH  34  35
ATOM     35  C   ARG A   5      25.901   7.967  -8.686  1.00  0.00     0.243 C 
ATOM     36  N   ASN A   6      25.916   7.866 -10.103  1.00  0.00    -0.341 N 
ATOM     37  O   ARG A   5      26.449   7.087  -7.970  1.00  0.00    -0.273 OA
ATOM     38  H   UNL     1      25.496   8.651 -10.651  1.00  0.00     0.164 HD
BRANCH  36  39
ATOM     39  CA  ASN A   6      26.543   6.751 -10.804  1.00  0.00     0.201 C 
BRANCH  39  40
ATOM     40  C   ASN A   6      27.994   6.642 -10.417  1.00  0.00     0.326 C 
ATOM     41  O   ASN A   6      28.795   7.579 -10.677  1.00  0.00    -0.250 OA
BRANCH  40  42
ATOM     42  OXT ASN A   6      28.453   5.497  -9.772  1.00  0.00    -0.480 OA
ATOM     43  H   UNL     1      29.426   5.407  -9.504  1.00  0.00     0.296 HD
ENDBRANCH  40  42
ENDBRANCH  39  40
BRANCH  39  44
ATOM     44  CB  ASN A   6      26.424   6.946 -12.323  1.00  0.00     0.136 C 
BRANCH  44  45
ATOM     45  CG  ASN A   6      25.009   7.181 -12.772  1.00  0.00     0.220 C 
ATOM     46  ND2 ASN A   6      24.753   8.089 -13.834  1.00  0.00    -0.370 N 
ATOM     47  OD1 ASN A   6      24.051   6.563 -12.238  1.00  0.00    -0.275 OA
ATOM     48  H   UNL     1      25.533   8.595 -14.309  1.00  0.00     0.159 HD
ATOM     49  H   UNL     1      23.775   8.258 -14.156  1.00  0.00     0.159 HD
ENDBRANCH  44  45
ENDBRANCH  39  44
ENDBRANCH  36  39
ENDBRANCH  34  35
BRANCH  34  50
ATOM     50  CB  ARG A   5      25.856   9.600  -6.794  1.00  0.00     0.037 C 
BRANCH  50  51
ATOM     51  CG  ARG A   5      25.165  10.859  -6.272  1.00  0.00     0.024 C 
BRANCH  51  52
ATOM     52  CD  ARG A   5      25.841  11.390  -5.016  1.00  0.00     0.116 C 
BRANCH  52  53
ATOM     53  NE  ARG A   5      25.378  10.684  -3.823  1.00  0.00    -0.357 N 
ATOM     54  CZ  ARG A   5      25.469  11.279  -2.527  1.00  0.00     0.185 C 
ATOM     55  NH2 ARG A   5      26.107  12.541  -2.350  1.00  0.00    -0.370 N 
ATOM     56  H   UNL     1      24.904   9.757  -3.921  1.00  0.00     0.163 HD
ATOM     57  H   UNL     1      26.693  12.982  -3.091  1.00  0.00     0.159 HD
ATOM     58  H   UNL     1      26.084  13.006  -1.415  1.00  0.00     0.159 HD
BRANCH  54  59
ATOM     59  NH1 ARG A   5      24.959  10.679  -1.500  1.00  0.00    -0.270 NA
ATOM     60  H   UNL     1      24.479   9.755  -1.583  1.00  0.00     0.191 HD
ENDBRANCH  54  59
ENDBRANCH  52  53
ENDBRANCH  51  52
ENDBRANCH  50  51
ENDBRANCH  34  50
ENDBRANCH  31  34
ENDBRANCH  29  30
BRANCH  29  61
ATOM     61  CB  SER A   4      20.665   7.997  -9.294  1.00  0.00     0.191 C 
BRANCH  61  62
ATOM     62  OG  SER A   4      19.408   7.533  -8.885  1.00  0.00    -0.394 OA
ATOM     63  H   UNL     1      19.021   7.061  -9.667  1.00  0.00     0.210 HD
ENDBRANCH  61  62
ENDBRANCH  29  61
ENDBRANCH   3  29
TORSDOF 26
