REMARK SMILES CC(C)C[C@H](NC(=O)[C@@H](NC(=O)[C@@H](N)CO)C(C)C)C(=O)N[C@@H](CO)C(=O)N[C@@H](CCCNC(=N)N)C(=O)N[C@@H](CC(N)=O)C(=O)O
REMARK SMILES IDX 20 1 21 2 22 3 5 5 6 6 7 7 8 8 9 10 10 11 11 12 12 13 13 15
REMARK SMILES IDX 14 16 15 19 16 20 17 22 18 23 19 24 4 25 2 26 1 27 3 28
REMARK SMILES IDX 23 29 26 30 28 31 27 32 29 34 37 35 39 36 38 37 40 39 45 40
REMARK SMILES IDX 46 41 47 42 41 44 42 45 43 46 44 47 30 50 31 51 32 52 33 53
REMARK SMILES IDX 34 54 36 55 35 59 24 61 25 62
REMARK H PARENT 22 4 6 9 10 14 14 17 14 18 16 21 28 33 39 38 47 43 43 48 43 49
REMARK H PARENT 33 56 36 57 36 58 35 60 25 63
ROOT
ATOM      1  C   LEU A   3      20.047  10.081  -6.474  1.00  0.00     0.243 C 
ATOM      2  O   LEU A   3      20.162   9.156  -5.622  1.00  0.00    -0.273 OA
ATOM      3  N   SER A   4      20.564   9.916  -7.782  1.00  0.00    -0.340 N 
ATOM      4  H   UNL     1      20.404  10.660  -8.500  1.00  0.00     0.164 HD
ENDROOT
BRANCH   1   5
ATOM      5  CA  LEU A   3      19.331  11.351  -6.139  1.00  0.00     0.171 C 
BRANCH   5   6
ATOM      6  N   LEU A   3      18.076  11.020  -5.518  1.00  0.00    -0.343 N 
ATOM      7  C   VAL A   2      16.876  11.744  -5.745  1.00  0.00     0.243 C 
ATOM      8  O   VAL A   2      16.891  12.793  -6.449  1.00  0.00    -0.273 OA
ATOM      9  H   UNL     1      18.142  10.364  -4.714  1.00  0.00     0.164 HD
BRANCH   7  10
ATOM     10  CA  VAL A   2      15.622  11.276  -5.055  1.00  0.00     0.173 C 
BRANCH  10  11
ATOM     11  N   VAL A   2      14.437  11.732  -5.768  1.00  0.00    -0.343 N 
ATOM     12  C   SER A   1      13.915  13.049  -5.638  1.00  0.00     0.239 C 
ATOM     13  O   SER A   1      14.450  13.864  -4.837  1.00  0.00    -0.273 OA
ATOM     14  H   UNL     1      13.825  11.016  -6.209  1.00  0.00     0.164 HD
BRANCH  12  15
ATOM     15  CA  SER A   1      12.663  13.415  -6.390  1.00  0.00     0.167 C 
BRANCH  15  16
ATOM     16  N   SER A   1      12.474  14.867  -6.373  1.00  0.00    -0.318 NA
ATOM     17  H   UNL     1      11.545  15.094  -6.795  1.00  0.00     0.119 HD
ATOM     18  H   UNL     1      13.209  15.323  -6.963  1.00  0.00     0.119 HD
ENDBRANCH  15  16
BRANCH  15  19
ATOM     19  CB  SER A   1      12.689  12.888  -7.849  1.00  0.00     0.184 C 
BRANCH  19  20
ATOM     20  OG  SER A   1      11.435  13.048  -8.451  1.00  0.00    -0.394 OA
ATOM     21  H   UNL     1      10.838  12.359  -8.056  1.00  0.00     0.210 HD
ENDBRANCH  19  20
ENDBRANCH  15  19
ENDBRANCH  12  15
ENDBRANCH  10  11
BRANCH  10  22
ATOM     22  CB  VAL A   2      15.585   9.722  -4.892  1.00  0.00     0.015 C 
ATOM     23  CG1 VAL A   2      14.379   9.267  -4.077  1.00  0.00     0.010 C 
ATOM     24  CG2 VAL A   2      15.665   8.945  -6.222  1.00  0.00     0.010 C 
ENDBRANCH  10  22
ENDBRANCH   7  10
ENDBRANCH   5   6
BRANCH   5  25
ATOM     25  CB  LEU A   3      20.162  12.250  -5.215  1.00  0.00     0.038 C 
BRANCH  25  26
ATOM     26  CG  LEU A   3      20.417  11.679  -3.791  1.00  0.00    -0.015 C 
ATOM     27  CD1 LEU A   3      21.819  12.067  -3.318  1.00  0.00     0.007 C 
ATOM     28  CD2 LEU A   3      19.369  12.169  -2.780  1.00  0.00     0.007 C 
ENDBRANCH  25  26
ENDBRANCH   5  25
ENDBRANCH   1   5
BRANCH   3  29
ATOM     29  CA  SER A   4      21.341   8.749  -8.155  1.00  0.00     0.197 C 
BRANCH  29  30
ATOM     30  C   SER A   4      22.709   9.198  -8.532  1.00  0.00     0.245 C 
ATOM     31  N   ARG A   5      23.817   8.706  -7.791  1.00  0.00    -0.342 N 
ATOM     32  O   SER A   4      22.876  10.026  -9.470  1.00  0.00    -0.273 OA
ATOM     33  H   UNL     1      23.662   7.984  -7.050  1.00  0.00     0.164 HD
BRANCH  31  34
ATOM     34  CA  ARG A   5      25.181   9.117  -8.072  1.00  0.00     0.171 C 
BRANCH  34  35
ATOM     35  C   ARG A   5      25.901   7.968  -8.686  1.00  0.00     0.243 C 
ATOM     36  N   ASN A   6      25.916   7.866 -10.103  1.00  0.00    -0.341 N 
ATOM     37  O   ARG A   5      26.450   7.087  -7.970  1.00  0.00    -0.273 OA
ATOM     38  H   UNL     1      25.496   8.651 -10.651  1.00  0.00     0.164 HD
BRANCH  36  39
ATOM     39  CA  ASN A   6      26.543   6.751 -10.804  1.00  0.00     0.201 C 
BRANCH  39  40
ATOM     40  C   ASN A   6      27.994   6.642 -10.417  1.00  0.00     0.326 C 
ATOM     41  O   ASN A   6      28.795   7.579 -10.677  1.00  0.00    -0.250 OA
BRANCH  40  42
ATOM     42  OXT ASN A   6      28.453   5.497  -9.772  1.00  0.00    -0.480 OA
ATOM     43  H   UNL     1      29.426   5.407  -9.504  1.00  0.00     0.296 HD
ENDBRANCH  40  42
ENDBRANCH  39  40
BRANCH  39  44
ATOM     44  CB  ASN A   6      26.424   6.946 -12.323  1.00  0.00     0.136 C 
BRANCH  44  45
ATOM     45  CG  ASN A   6      25.009   7.181 -12.772  1.00  0.00     0.220 C 
ATOM     46  ND2 ASN A   6      24.753   8.089 -13.834  1.00  0.00    -0.370 N 
ATOM     47  OD1 ASN A   6      24.051   6.563 -12.238  1.00  0.00    -0.275 OA
ATOM     48  H   UNL     1      25.533   8.595 -14.309  1.00  0.00     0.159 HD
ATOM     49  H   UNL     1      23.775   8.258 -14.156  1.00  0.00     0.159 HD
ENDBRANCH  44  45
ENDBRANCH  39  44
ENDBRANCH  36  39
ENDBRANCH  34  35
BRANCH  34  50
ATOM     50  CB  ARG A   5      25.855   9.600  -6.793  1.00  0.00     0.037 C 
BRANCH  50  51
ATOM     51  CG  ARG A   5      25.162  10.857  -6.270  1.00  0.00     0.024 C 
BRANCH  51  52
ATOM     52  CD  ARG A   5      25.838  11.390  -5.014  1.00  0.00     0.116 C 
BRANCH  52  53
ATOM     53  NE  ARG A   5      25.377  10.686  -3.820  1.00  0.00    -0.357 N 
ATOM     54  CZ  ARG A   5      25.469  11.281  -2.527  1.00  0.00     0.185 C 
ATOM     55  NH2 ARG A   5      26.107  12.546  -2.352  1.00  0.00    -0.370 N 
ATOM     56  H   UNL     1      24.894   9.763  -3.911  1.00  0.00     0.163 HD
ATOM     57  H   UNL     1      26.080  13.024  -1.424  1.00  0.00     0.159 HD
ATOM     58  H   UNL     1      26.696  12.982  -3.094  1.00  0.00     0.159 HD
BRANCH  54  59
ATOM     59  NH1 ARG A   5      24.955  10.672  -1.507  1.00  0.00    -0.270 NA
ATOM     60  H   UNL     1      24.996  11.077  -0.545  1.00  0.00     0.191 HD
ENDBRANCH  54  59
ENDBRANCH  52  53
ENDBRANCH  51  52
ENDBRANCH  50  51
ENDBRANCH  34  50
ENDBRANCH  31  34
ENDBRANCH  29  30
BRANCH  29  61
ATOM     61  CB  SER A   4      20.662   8.003  -9.302  1.00  0.00     0.191 C 
BRANCH  61  62
ATOM     62  OG  SER A   4      19.382   7.575  -8.921  1.00  0.00    -0.394 OA
ATOM     63  H   UNL     1      19.509   6.790  -8.327  1.00  0.00     0.210 HD
ENDBRANCH  61  62
ENDBRANCH  29  61
ENDBRANCH   3  29
TORSDOF 27
