REMARK SMILES CC[C@H](C)[C@H](NC(=O)[C@H](C)NC(=O)[C@@H](N)CO)C(=O)N[C@@H](CC(C)C)C(=O)N[C@@H](CCCNC(=N)N)C(=O)N[C@@H](CC(N)=O)C(=O)O
REMARK SMILES IDX 18 1 19 2 20 3 5 5 6 6 7 7 8 8 9 10 10 11 11 12 12 13 13 14
REMARK SMILES IDX 14 16 15 17 16 20 17 21 3 23 4 24 2 25 1 26 21 27 26 28
REMARK SMILES IDX 28 29 27 30 29 32 37 33 39 34 38 35 40 37 45 38 46 39 47 40
REMARK SMILES IDX 41 42 42 43 43 44 44 45 30 48 31 49 32 50 33 51 34 52 36 53
REMARK SMILES IDX 35 57 22 59 23 60 24 61 25 62
REMARK H PARENT 20 4 6 9 11 15 15 18 15 19 17 22 28 31 39 36 47 41 43 46 43 47
REMARK H PARENT 33 54 36 55 36 56 35 58
ROOT
ATOM      1  C   ILE A   3      20.029  10.080  -6.468  1.00  0.00     0.243 C 
ATOM      2  O   ILE A   3      20.150   9.158  -5.615  1.00  0.00    -0.273 OA
ATOM      3  N   LEU A   4      20.563   9.924  -7.773  1.00  0.00    -0.343 N 
ATOM      4  H   UNL     1      20.405  10.669  -8.490  1.00  0.00     0.164 HD
ENDROOT
BRANCH   1   5
ATOM      5  CA  ILE A   3      19.318  11.350  -6.130  1.00  0.00     0.174 C 
BRANCH   5   6
ATOM      6  N   ILE A   3      18.066  11.028  -5.485  1.00  0.00    -0.342 N 
ATOM      7  C   ALA A   2      16.866  11.744  -5.736  1.00  0.00     0.242 C 
ATOM      8  O   ALA A   2      16.882  12.780  -6.459  1.00  0.00    -0.273 OA
ATOM      9  H   UNL     1      18.108  10.390  -4.660  1.00  0.00     0.164 HD
BRANCH   7  10
ATOM     10  CA  ALA A   2      15.614  11.293  -5.039  1.00  0.00     0.168 C 
ATOM     11  CB  ALA A   2      15.567   9.762  -4.905  1.00  0.00     0.041 C 
BRANCH  10  12
ATOM     12  N   ALA A   2      14.434  11.731  -5.765  1.00  0.00    -0.343 N 
ATOM     13  C   SER A   1      13.908  13.047  -5.639  1.00  0.00     0.239 C 
ATOM     14  O   SER A   1      14.442  13.865  -4.840  1.00  0.00    -0.273 OA
ATOM     15  H   UNL     1      13.845  10.997  -6.216  1.00  0.00     0.164 HD
BRANCH  13  16
ATOM     16  CA  SER A   1      12.658  13.412  -6.396  1.00  0.00     0.167 C 
BRANCH  16  17
ATOM     17  N   SER A   1      12.472  14.864  -6.379  1.00  0.00    -0.318 NA
ATOM     18  H   UNL     1      13.206  15.320  -6.970  1.00  0.00     0.119 HD
ATOM     19  H   UNL     1      11.542  15.093  -6.798  1.00  0.00     0.119 HD
ENDBRANCH  16  17
BRANCH  16  20
ATOM     20  CB  SER A   1      12.690  12.885  -7.851  1.00  0.00     0.184 C 
BRANCH  20  21
ATOM     21  OG  SER A   1      11.434  13.052  -8.445  1.00  0.00    -0.394 OA
ATOM     22  H   UNL     1      11.536  12.783  -9.395  1.00  0.00     0.210 HD
ENDBRANCH  20  21
ENDBRANCH  16  20
ENDBRANCH  13  16
ENDBRANCH  10  12
ENDBRANCH   7  10
ENDBRANCH   5   6
BRANCH   5  23
ATOM     23  CB  ILE A   3      20.189  12.256  -5.233  1.00  0.00     0.018 C 
ATOM     24  CG1 ILE A   3      19.627  13.686  -5.166  1.00  0.00     0.010 C 
BRANCH  23  25
ATOM     25  CG2 ILE A   3      20.420  11.695  -3.804  1.00  0.00     0.002 C 
ATOM     26  CD1 ILE A   3      21.810  12.063  -3.296  1.00  0.00     0.004 C 
ENDBRANCH  23  25
ENDBRANCH   5  23
ENDBRANCH   1   5
BRANCH   3  27
ATOM     27  CA  LEU A   4      21.348   8.762  -8.141  1.00  0.00     0.171 C 
BRANCH  27  28
ATOM     28  C   LEU A   4      22.713   9.217  -8.521  1.00  0.00     0.243 C 
ATOM     29  N   ARG A   5      23.822   8.721  -7.786  1.00  0.00    -0.343 N 
ATOM     30  O   LEU A   4      22.878  10.033  -9.469  1.00  0.00    -0.273 OA
ATOM     31  H   UNL     1      23.666   8.031  -7.015  1.00  0.00     0.164 HD
BRANCH  29  32
ATOM     32  CA  ARG A   5      25.186   9.122  -8.073  1.00  0.00     0.171 C 
BRANCH  32  33
ATOM     33  C   ARG A   5      25.900   7.968  -8.685  1.00  0.00     0.243 C 
ATOM     34  N   ASN A   6      25.913   7.864 -10.102  1.00  0.00    -0.341 N 
ATOM     35  O   ARG A   5      26.447   7.087  -7.969  1.00  0.00    -0.273 OA
ATOM     36  H   UNL     1      25.489   8.647 -10.651  1.00  0.00     0.164 HD
BRANCH  34  37
ATOM     37  CA  ASN A   6      26.542   6.751 -10.804  1.00  0.00     0.201 C 
BRANCH  37  38
ATOM     38  C   ASN A   6      27.993   6.642 -10.416  1.00  0.00     0.326 C 
ATOM     39  O   ASN A   6      28.794   7.579 -10.677  1.00  0.00    -0.250 OA
BRANCH  38  40
ATOM     40  OXT ASN A   6      28.451   5.499  -9.768  1.00  0.00    -0.480 OA
ATOM     41  H   UNL     1      29.424   5.409  -9.499  1.00  0.00     0.296 HD
ENDBRANCH  38  40
ENDBRANCH  37  38
BRANCH  37  42
ATOM     42  CB  ASN A   6      26.424   6.946 -12.323  1.00  0.00     0.136 C 
BRANCH  42  43
ATOM     43  CG  ASN A   6      25.010   7.180 -12.773  1.00  0.00     0.220 C 
ATOM     44  ND2 ASN A   6      24.753   8.090 -13.833  1.00  0.00    -0.370 N 
ATOM     45  OD1 ASN A   6      24.053   6.558 -12.243  1.00  0.00    -0.275 OA
ATOM     46  H   UNL     1      23.775   8.258 -14.156  1.00  0.00     0.159 HD
ATOM     47  H   UNL     1      25.533   8.600 -14.306  1.00  0.00     0.159 HD
ENDBRANCH  42  43
ENDBRANCH  37  42
ENDBRANCH  34  37
ENDBRANCH  32  33
BRANCH  32  48
ATOM     48  CB  ARG A   5      25.863   9.606  -6.796  1.00  0.00     0.037 C 
BRANCH  48  49
ATOM     49  CG  ARG A   5      25.166  10.861  -6.271  1.00  0.00     0.024 C 
BRANCH  49  50
ATOM     50  CD  ARG A   5      25.839  11.392  -5.014  1.00  0.00     0.116 C 
BRANCH  50  51
ATOM     51  NE  ARG A   5      25.378  10.684  -3.823  1.00  0.00    -0.357 N 
ATOM     52  CZ  ARG A   5      25.468  11.279  -2.527  1.00  0.00     0.185 C 
ATOM     53  NH2 ARG A   5      26.105  12.541  -2.350  1.00  0.00    -0.370 N 
ATOM     54  H   UNL     1      24.901   9.759  -3.922  1.00  0.00     0.163 HD
ATOM     55  H   UNL     1      26.080  13.008  -1.415  1.00  0.00     0.159 HD
ATOM     56  H   UNL     1      26.692  12.983  -3.090  1.00  0.00     0.159 HD
BRANCH  52  57
ATOM     57  NH1 ARG A   5      24.956  10.679  -1.500  1.00  0.00    -0.270 NA
ATOM     58  H   UNL     1      24.474   9.757  -1.584  1.00  0.00     0.191 HD
ENDBRANCH  52  57
ENDBRANCH  50  51
ENDBRANCH  49  50
ENDBRANCH  48  49
ENDBRANCH  32  48
ENDBRANCH  29  32
ENDBRANCH  27  28
BRANCH  27  59
ATOM     59  CB  LEU A   4      20.655   8.000  -9.273  1.00  0.00     0.038 C 
BRANCH  59  60
ATOM     60  CG  LEU A   4      21.448   6.771  -9.769  1.00  0.00    -0.015 C 
ATOM     61  CD1 LEU A   4      21.762   5.779  -8.639  1.00  0.00     0.007 C 
ATOM     62  CD2 LEU A   4      20.661   6.067 -10.877  1.00  0.00     0.007 C 
ENDBRANCH  59  60
ENDBRANCH  27  59
ENDBRANCH   3  27
TORSDOF 26
