REMARK SMILES CC(C)[C@H](NC(=O)[C@H](Cc1ccccc1)NC(=O)[C@@H](N)CO)C(=O)N[C@@H](CCCCN)C(=O)N[C@@H](CCCNC(=N)N)C(=O)N[C@@H](CC(N)=O)C(=O)O
REMARK SMILES IDX 23 1 24 2 25 3 4 5 5 6 6 7 7 8 8 10 16 11 17 12 18 13 19 15
REMARK SMILES IDX 20 16 21 19 22 20 9 22 10 23 11 24 15 25 12 26 14 27 13 28
REMARK SMILES IDX 2 29 1 30 3 31 26 32 32 33 34 34 33 35 35 37 43 38 45 39
REMARK SMILES IDX 44 40 46 42 51 43 52 44 53 45 47 47 48 48 49 49 50 50 36 53
REMARK SMILES IDX 37 54 38 55 39 56 40 57 42 58 41 62 27 64 28 65 29 66 30 67
REMARK SMILES IDX 31 68
REMARK H PARENT 25 4 5 9 16 14 20 17 20 18 22 21 34 36 45 41 53 46 49 51 49 52
REMARK H PARENT 39 59 42 60 42 61 41 63 31 69 31 70
ROOT
ATOM      1  C   VAL A   3      20.044  10.093  -6.465  1.00  0.00     0.243 C 
ATOM      2  O   VAL A   3      20.157   9.175  -5.605  1.00  0.00    -0.273 OA
ATOM      3  N   LYS A   4      20.560   9.921  -7.776  1.00  0.00    -0.343 N 
ATOM      4  H   UNL     1      20.396  10.660  -8.498  1.00  0.00     0.164 HD
ENDROOT
BRANCH   1   5
ATOM      5  CA  VAL A   3      19.346  11.370  -6.132  1.00  0.00     0.174 C 
BRANCH   5   6
ATOM      6  N   VAL A   3      18.089  11.049  -5.505  1.00  0.00    -0.342 N 
ATOM      7  C   PHE A   2      16.884  11.746  -5.778  1.00  0.00     0.243 C 
ATOM      8  O   PHE A   2      16.895  12.786  -6.493  1.00  0.00    -0.273 OA
ATOM      9  H   UNL     1      18.161  10.475  -4.641  1.00  0.00     0.164 HD
BRANCH   7  10
ATOM     10  CA  PHE A   2      15.650  11.312  -5.060  1.00  0.00     0.175 C 
BRANCH  10  11
ATOM     11  N   PHE A   2      14.451  11.739  -5.768  1.00  0.00    -0.343 N 
ATOM     12  C   SER A   1      13.915  13.050  -5.636  1.00  0.00     0.239 C 
ATOM     13  O   SER A   1      14.450  13.869  -4.839  1.00  0.00    -0.273 OA
ATOM     14  H   UNL     1      13.858  11.000  -6.205  1.00  0.00     0.164 HD
BRANCH  12  15
ATOM     15  CA  SER A   1      12.655  13.410  -6.383  1.00  0.00     0.167 C 
BRANCH  15  16
ATOM     16  N   SER A   1      12.468  14.863  -6.382  1.00  0.00    -0.318 NA
ATOM     17  H   UNL     1      12.305  15.175  -5.396  1.00  0.00     0.119 HD
ATOM     18  H   UNL     1      11.581  15.088  -6.890  1.00  0.00     0.119 HD
ENDBRANCH  15  16
BRANCH  15  19
ATOM     19  CB  SER A   1      12.695  12.894  -7.842  1.00  0.00     0.184 C 
BRANCH  19  20
ATOM     20  OG  SER A   1      11.440  13.037  -8.449  1.00  0.00    -0.394 OA
ATOM     21  H   UNL     1      10.855  12.333  -8.065  1.00  0.00     0.210 HD
ENDBRANCH  19  20
ENDBRANCH  15  19
ENDBRANCH  12  15
ENDBRANCH  10  11
BRANCH  10  22
ATOM     22  CB  PHE A   2      15.611   9.772  -4.891  1.00  0.00     0.070 C 
BRANCH  22  23
ATOM     23  CG  PHE A   2      14.442   9.289  -4.091  1.00  0.00    -0.045 A 
ATOM     24  CD1 PHE A   2      13.902  10.047  -3.033  1.00  0.00     0.004 A 
ATOM     25  CD2 PHE A   2      13.967   7.989  -4.310  1.00  0.00     0.004 A 
ATOM     26  CE1 PHE A   2      12.868   9.536  -2.260  1.00  0.00     0.000 A 
ATOM     27  CE2 PHE A   2      12.939   7.477  -3.520  1.00  0.00     0.000 A 
ATOM     28  CZ  PHE A   2      12.386   8.252  -2.501  1.00  0.00     0.000 A 
ENDBRANCH  22  23
ENDBRANCH  10  22
ENDBRANCH   7  10
ENDBRANCH   5   6
BRANCH   5  29
ATOM     29  CB  VAL A   3      20.205  12.266  -5.209  1.00  0.00     0.015 C 
ATOM     30  CG1 VAL A   3      20.428  11.690  -3.797  1.00  0.00     0.010 C 
ATOM     31  CG2 VAL A   3      19.626  13.684  -5.105  1.00  0.00     0.010 C 
ENDBRANCH   5  29
ENDBRANCH   1   5
BRANCH   3  32
ATOM     32  CA  LYS A   4      21.345   8.760  -8.141  1.00  0.00     0.171 C 
BRANCH  32  33
ATOM     33  C   LYS A   4      22.712   9.216  -8.521  1.00  0.00     0.243 C 
ATOM     34  N   ARG A   5      23.821   8.720  -7.785  1.00  0.00    -0.343 N 
ATOM     35  O   LYS A   4      22.876  10.033  -9.468  1.00  0.00    -0.273 OA
ATOM     36  H   UNL     1      23.665   8.029  -7.016  1.00  0.00     0.164 HD
BRANCH  34  37
ATOM     37  CA  ARG A   5      25.184   9.121  -8.073  1.00  0.00     0.171 C 
BRANCH  37  38
ATOM     38  C   ARG A   5      25.899   7.967  -8.685  1.00  0.00     0.243 C 
ATOM     39  N   ASN A   6      25.912   7.864 -10.102  1.00  0.00    -0.341 N 
ATOM     40  O   ARG A   5      26.447   7.086  -7.969  1.00  0.00    -0.273 OA
ATOM     41  H   UNL     1      25.488   8.647 -10.651  1.00  0.00     0.164 HD
BRANCH  39  42
ATOM     42  CA  ASN A   6      26.541   6.750 -10.804  1.00  0.00     0.201 C 
BRANCH  42  43
ATOM     43  C   ASN A   6      27.992   6.642 -10.415  1.00  0.00     0.326 C 
ATOM     44  O   ASN A   6      28.794   7.578 -10.677  1.00  0.00    -0.250 OA
BRANCH  43  45
ATOM     45  OXT ASN A   6      28.451   5.499  -9.767  1.00  0.00    -0.480 OA
ATOM     46  H   UNL     1      29.423   5.409  -9.498  1.00  0.00     0.296 HD
ENDBRANCH  43  45
ENDBRANCH  42  43
BRANCH  42  47
ATOM     47  CB  ASN A   6      26.424   6.946 -12.323  1.00  0.00     0.136 C 
BRANCH  47  48
ATOM     48  CG  ASN A   6      25.010   7.180 -12.773  1.00  0.00     0.220 C 
ATOM     49  ND2 ASN A   6      24.754   8.090 -13.833  1.00  0.00    -0.370 N 
ATOM     50  OD1 ASN A   6      24.053   6.557 -12.243  1.00  0.00    -0.275 OA
ATOM     51  H   UNL     1      23.775   8.258 -14.157  1.00  0.00     0.159 HD
ATOM     52  H   UNL     1      25.533   8.600 -14.305  1.00  0.00     0.159 HD
ENDBRANCH  47  48
ENDBRANCH  42  47
ENDBRANCH  39  42
ENDBRANCH  37  38
BRANCH  37  53
ATOM     53  CB  ARG A   5      25.862   9.604  -6.795  1.00  0.00     0.037 C 
BRANCH  53  54
ATOM     54  CG  ARG A   5      25.166  10.859  -6.270  1.00  0.00     0.024 C 
BRANCH  54  55
ATOM     55  CD  ARG A   5      25.841  11.390  -5.014  1.00  0.00     0.116 C 
BRANCH  55  56
ATOM     56  NE  ARG A   5      25.377  10.687  -3.820  1.00  0.00    -0.357 N 
ATOM     57  CZ  ARG A   5      25.469  11.282  -2.526  1.00  0.00     0.185 C 
ATOM     58  NH2 ARG A   5      26.109  12.546  -2.351  1.00  0.00    -0.370 N 
ATOM     59  H   UNL     1      24.896   9.762  -3.912  1.00  0.00     0.163 HD
ATOM     60  H   UNL     1      26.699  12.981  -3.093  1.00  0.00     0.159 HD
ATOM     61  H   UNL     1      26.083  13.022  -1.422  1.00  0.00     0.159 HD
BRANCH  57  62
ATOM     62  NH1 ARG A   5      24.956  10.671  -1.507  1.00  0.00    -0.270 NA
ATOM     63  H   UNL     1      24.998  11.075  -0.544  1.00  0.00     0.191 HD
ENDBRANCH  57  62
ENDBRANCH  55  56
ENDBRANCH  54  55
ENDBRANCH  53  54
ENDBRANCH  37  53
ENDBRANCH  34  37
ENDBRANCH  32  33
BRANCH  32  64
ATOM     64  CB  LYS A   4      20.655   7.995  -9.274  1.00  0.00     0.035 C 
BRANCH  64  65
ATOM     65  CG  LYS A   4      21.454   6.779  -9.770  1.00  0.00     0.004 C 
BRANCH  65  66
ATOM     66  CD  LYS A   4      21.768   5.770  -8.656  1.00  0.00     0.015 C 
BRANCH  66  67
ATOM     67  CE  LYS A   4      22.380   4.488  -9.241  1.00  0.00     0.077 C 
BRANCH  67  68
ATOM     68  NZ  LYS A   4      22.714   3.530  -8.189  1.00  0.00    -0.330 NA
ATOM     69  H   UNL     1      21.848   3.309  -7.646  1.00  0.00     0.118 HD
ATOM     70  H   UNL     1      23.397   3.974  -7.532  1.00  0.00     0.118 HD
ENDBRANCH  67  68
ENDBRANCH  66  67
ENDBRANCH  65  66
ENDBRANCH  64  65
ENDBRANCH  32  64
ENDBRANCH   3  32
TORSDOF 30
