REMARK SMILES CC(C)C[C@H](NC(=O)[C@H](C)NC(=O)[C@@H](N)CO)C(=O)N[C@H](C(=O)N[C@@H](CCCNC(=N)N)C(=O)N[C@@H](CC(N)=O)C(=O)O)[C@@H](C)O
REMARK SMILES IDX 18 1 19 2 20 3 5 5 6 6 7 7 8 8 9 10 10 11 11 12 12 13 13 14
REMARK SMILES IDX 14 16 15 17 16 20 17 21 4 23 2 24 1 25 3 26 21 27 22 28
REMARK SMILES IDX 24 29 23 30 25 32 33 33 35 34 34 35 36 37 41 38 42 39 43 40
REMARK SMILES IDX 37 42 38 43 39 44 40 45 26 48 27 49 28 50 29 51 30 52 32 53
REMARK SMILES IDX 31 57 44 59 45 60 46 61
REMARK H PARENT 20 4 6 9 11 15 15 18 15 19 17 22 24 31 35 36 43 41 39 46 39 47
REMARK H PARENT 29 54 32 55 32 56 31 58 46 62
ROOT
ATOM      1  C   LEU A   3      20.046  10.075  -6.471  1.00  0.00     0.243 C 
ATOM      2  O   LEU A   3      20.166   9.150  -5.621  1.00  0.00    -0.273 OA
ATOM      3  N   THR A   4      20.567   9.916  -7.779  1.00  0.00    -0.340 N 
ATOM      4  H   UNL     1      20.406  10.662  -8.494  1.00  0.00     0.164 HD
ENDROOT
BRANCH   1   5
ATOM      5  CA  LEU A   3      19.321  11.336  -6.134  1.00  0.00     0.171 C 
BRANCH   5   6
ATOM      6  N   LEU A   3      18.059  10.996  -5.523  1.00  0.00    -0.343 N 
ATOM      7  C   ALA A   2      16.870  11.742  -5.738  1.00  0.00     0.242 C 
ATOM      8  O   ALA A   2      16.896  12.792  -6.440  1.00  0.00    -0.273 OA
ATOM      9  H   UNL     1      18.082  10.277  -4.767  1.00  0.00     0.164 HD
BRANCH   7  10
ATOM     10  CA  ALA A   2      15.616  11.294  -5.039  1.00  0.00     0.168 C 
ATOM     11  CB  ALA A   2      15.560   9.763  -4.898  1.00  0.00     0.041 C 
BRANCH  10  12
ATOM     12  N   ALA A   2      14.439  11.733  -5.767  1.00  0.00    -0.343 N 
ATOM     13  C   SER A   1      13.913  13.048  -5.636  1.00  0.00     0.239 C 
ATOM     14  O   SER A   1      14.449  13.863  -4.835  1.00  0.00    -0.273 OA
ATOM     15  H   UNL     1      13.851  11.002  -6.225  1.00  0.00     0.164 HD
BRANCH  13  16
ATOM     16  CA  SER A   1      12.659  13.414  -6.389  1.00  0.00     0.167 C 
BRANCH  16  17
ATOM     17  N   SER A   1      12.455  14.864  -6.398  1.00  0.00    -0.318 NA
ATOM     18  H   UNL     1      13.317  15.340  -6.753  1.00  0.00     0.119 HD
ATOM     19  H   UNL     1      12.285  15.192  -5.419  1.00  0.00     0.119 HD
ENDBRANCH  16  17
BRANCH  16  20
ATOM     20  CB  SER A   1      12.689  12.893  -7.845  1.00  0.00     0.184 C 
BRANCH  20  21
ATOM     21  OG  SER A   1      11.435  13.054  -8.447  1.00  0.00    -0.394 OA
ATOM     22  H   UNL     1      10.842  12.356  -8.065  1.00  0.00     0.210 HD
ENDBRANCH  20  21
ENDBRANCH  16  20
ENDBRANCH  13  16
ENDBRANCH  10  12
ENDBRANCH   7  10
ENDBRANCH   5   6
BRANCH   5  23
ATOM     23  CB  LEU A   3      20.148  12.243  -5.213  1.00  0.00     0.038 C 
BRANCH  23  24
ATOM     24  CG  LEU A   3      20.411  11.673  -3.790  1.00  0.00    -0.015 C 
ATOM     25  CD1 LEU A   3      21.813  12.069  -3.319  1.00  0.00     0.007 C 
ATOM     26  CD2 LEU A   3      19.361  12.156  -2.781  1.00  0.00     0.007 C 
ENDBRANCH  23  24
ENDBRANCH   5  23
ENDBRANCH   1   5
BRANCH   3  27
ATOM     27  CA  THR A   4      21.344   8.750  -8.157  1.00  0.00     0.200 C 
BRANCH  27  28
ATOM     28  C   THR A   4      22.712   9.209  -8.526  1.00  0.00     0.245 C 
ATOM     29  N   ARG A   5      23.819   8.708  -7.791  1.00  0.00    -0.342 N 
ATOM     30  O   THR A   4      22.879  10.035  -9.465  1.00  0.00    -0.273 OA
ATOM     31  H   UNL     1      23.664   7.982  -7.055  1.00  0.00     0.164 HD
BRANCH  29  32
ATOM     32  CA  ARG A   5      25.183   9.117  -8.073  1.00  0.00     0.171 C 
BRANCH  32  33
ATOM     33  C   ARG A   5      25.902   7.967  -8.686  1.00  0.00     0.243 C 
ATOM     34  N   ASN A   6      25.915   7.864 -10.103  1.00  0.00    -0.341 N 
ATOM     35  O   ARG A   5      26.450   7.086  -7.970  1.00  0.00    -0.273 OA
ATOM     36  H   UNL     1      25.491   8.648 -10.651  1.00  0.00     0.164 HD
BRANCH  34  37
ATOM     37  CA  ASN A   6      26.543   6.750 -10.804  1.00  0.00     0.201 C 
BRANCH  37  38
ATOM     38  C   ASN A   6      27.994   6.642 -10.417  1.00  0.00     0.326 C 
ATOM     39  O   ASN A   6      28.795   7.579 -10.677  1.00  0.00    -0.250 OA
BRANCH  38  40
ATOM     40  OXT ASN A   6      28.453   5.498  -9.771  1.00  0.00    -0.480 OA
ATOM     41  H   UNL     1      29.425   5.408  -9.503  1.00  0.00     0.296 HD
ENDBRANCH  38  40
ENDBRANCH  37  38
BRANCH  37  42
ATOM     42  CB  ASN A   6      26.425   6.946 -12.324  1.00  0.00     0.136 C 
BRANCH  42  43
ATOM     43  CG  ASN A   6      25.011   7.181 -12.773  1.00  0.00     0.220 C 
ATOM     44  ND2 ASN A   6      24.754   8.091 -13.834  1.00  0.00    -0.370 N 
ATOM     45  OD1 ASN A   6      24.053   6.559 -12.243  1.00  0.00    -0.275 OA
ATOM     46  H   UNL     1      25.533   8.600 -14.307  1.00  0.00     0.159 HD
ATOM     47  H   UNL     1      23.775   8.258 -14.157  1.00  0.00     0.159 HD
ENDBRANCH  42  43
ENDBRANCH  37  42
ENDBRANCH  34  37
ENDBRANCH  32  33
BRANCH  32  48
ATOM     48  CB  ARG A   5      25.857   9.600  -6.794  1.00  0.00     0.037 C 
BRANCH  48  49
ATOM     49  CG  ARG A   5      25.159  10.855  -6.274  1.00  0.00     0.024 C 
BRANCH  49  50
ATOM     50  CD  ARG A   5      25.833  11.394  -5.021  1.00  0.00     0.116 C 
BRANCH  50  51
ATOM     51  NE  ARG A   5      25.383  10.687  -3.825  1.00  0.00    -0.357 N 
ATOM     52  CZ  ARG A   5      25.470  11.281  -2.527  1.00  0.00     0.185 C 
ATOM     53  NH2 ARG A   5      26.109  12.540  -2.332  1.00  0.00    -0.370 N 
ATOM     54  H   UNL     1      24.909   9.760  -3.922  1.00  0.00     0.163 HD
ATOM     55  H   UNL     1      26.703  12.998  -3.057  1.00  0.00     0.159 HD
ATOM     56  H   UNL     1      26.703  12.998  -3.057  1.00  0.00     0.159 HD
BRANCH  52  57
ATOM     57  NH1 ARG A   5      24.953  10.682  -1.504  1.00  0.00    -0.270 NA
ATOM     58  H   UNL     1      24.467   9.761  -1.591  1.00  0.00     0.191 HD
ENDBRANCH  52  57
ENDBRANCH  50  51
ENDBRANCH  49  50
ENDBRANCH  48  49
ENDBRANCH  32  48
ENDBRANCH  29  32
ENDBRANCH  27  28
BRANCH  27  59
ATOM     59  CB  THR A   4      20.653   8.008  -9.313  1.00  0.00     0.143 C 
ATOM     60  CG2 THR A   4      21.437   6.765  -9.754  1.00  0.00     0.041 C 
BRANCH  59  61
ATOM     61  OG1 THR A   4      19.340   7.650  -8.957  1.00  0.00    -0.391 OA
ATOM     62  H   UNL     1      19.396   7.034  -8.180  1.00  0.00     0.211 HD
ENDBRANCH  59  61
ENDBRANCH  27  59
ENDBRANCH   3  27
TORSDOF 26
