REMARK SMILES CC(C)C[C@H](NC(=O)[C@H](CCCNC(=N)N)NC(=O)[C@H](Cc1ccccc1)NC(=O)[C@@H](N)CO)C(=O)N[C@@H](CO)C(=O)N[C@@H](CC(N)=O)C(=O)O
REMARK SMILES IDX 7 1 8 2 6 3 9 5 17 6 18 7 19 8 20 10 28 11 29 12 30 13 31 15
REMARK SMILES IDX 32 16 33 19 34 20 21 22 22 23 23 24 27 25 24 26 26 27 25 28
REMARK SMILES IDX 10 29 11 30 12 31 13 32 14 33 16 34 15 38 5 40 35 41 37 42
REMARK SMILES IDX 36 43 38 45 41 46 43 47 42 48 44 50 49 51 50 52 51 53 45 55
REMARK SMILES IDX 46 56 47 57 48 58 39 61 40 62 4 64 2 65 1 66 3 67
REMARK H PARENT 6 4 17 9 28 14 32 17 32 18 34 21 13 35 16 36 16 37 15 39 37 44
REMARK H PARENT 43 49 51 54 47 59 47 60 40 63
ROOT
ATOM      1  C   ARG A   3      20.037  10.083  -6.471  1.00  0.00     0.243 C 
ATOM      2  O   ARG A   3      20.149   9.161  -5.616  1.00  0.00    -0.273 OA
ATOM      3  N   LEU A   4      20.565   9.921  -7.777  1.00  0.00    -0.343 N 
ATOM      4  H   UNL     1      20.405  10.664  -8.496  1.00  0.00     0.164 HD
ENDROOT
BRANCH   1   5
ATOM      5  CA  ARG A   3      19.337  11.358  -6.139  1.00  0.00     0.171 C 
BRANCH   5   6
ATOM      6  N   ARG A   3      18.086  11.049  -5.497  1.00  0.00    -0.343 N 
ATOM      7  C   PHE A   2      16.885  11.750  -5.772  1.00  0.00     0.243 C 
ATOM      8  O   PHE A   2      16.901  12.792  -6.483  1.00  0.00    -0.273 OA
ATOM      9  H   UNL     1      18.162  10.513  -4.607  1.00  0.00     0.164 HD
BRANCH   7  10
ATOM     10  CA  PHE A   2      15.650  11.314  -5.059  1.00  0.00     0.175 C 
BRANCH  10  11
ATOM     11  N   PHE A   2      14.454  11.741  -5.770  1.00  0.00    -0.343 N 
ATOM     12  C   SER A   1      13.913  13.050  -5.637  1.00  0.00     0.239 C 
ATOM     13  O   SER A   1      14.442  13.870  -4.836  1.00  0.00    -0.273 OA
ATOM     14  H   UNL     1      13.870  11.001  -6.217  1.00  0.00     0.164 HD
BRANCH  12  15
ATOM     15  CA  SER A   1      12.660  13.412  -6.390  1.00  0.00     0.167 C 
BRANCH  15  16
ATOM     16  N   SER A   1      12.474  14.864  -6.376  1.00  0.00    -0.318 NA
ATOM     17  H   UNL     1      13.174  15.315  -7.009  1.00  0.00     0.119 HD
ATOM     18  H   UNL     1      11.521  15.091  -6.740  1.00  0.00     0.119 HD
ENDBRANCH  15  16
BRANCH  15  19
ATOM     19  CB  SER A   1      12.687  12.879  -7.844  1.00  0.00     0.184 C 
BRANCH  19  20
ATOM     20  OG  SER A   1      11.436  13.047  -8.450  1.00  0.00    -0.394 OA
ATOM     21  H   UNL     1      11.445  13.936  -8.892  1.00  0.00     0.210 HD
ENDBRANCH  19  20
ENDBRANCH  15  19
ENDBRANCH  12  15
ENDBRANCH  10  11
BRANCH  10  22
ATOM     22  CB  PHE A   2      15.612   9.774  -4.891  1.00  0.00     0.070 C 
BRANCH  22  23
ATOM     23  CG  PHE A   2      14.443   9.289  -4.090  1.00  0.00    -0.045 A 
ATOM     24  CD1 PHE A   2      13.903  10.047  -3.033  1.00  0.00     0.004 A 
ATOM     25  CD2 PHE A   2      13.968   7.990  -4.310  1.00  0.00     0.004 A 
ATOM     26  CE1 PHE A   2      12.869   9.535  -2.260  1.00  0.00     0.000 A 
ATOM     27  CE2 PHE A   2      12.940   7.477  -3.521  1.00  0.00     0.000 A 
ATOM     28  CZ  PHE A   2      12.386   8.252  -2.502  1.00  0.00     0.000 A 
ENDBRANCH  22  23
ENDBRANCH  10  22
ENDBRANCH   7  10
ENDBRANCH   5   6
BRANCH   5  29
ATOM     29  CB  ARG A   3      20.189  12.251  -5.233  1.00  0.00     0.037 C 
BRANCH  29  30
ATOM     30  CG  ARG A   3      20.423  11.697  -3.809  1.00  0.00     0.024 C 
BRANCH  30  31
ATOM     31  CD  ARG A   3      21.811  12.085  -3.302  1.00  0.00     0.116 C 
BRANCH  31  32
ATOM     32  NE  ARG A   3      22.015  11.596  -1.939  1.00  0.00    -0.357 N 
ATOM     33  CZ  ARG A   3      21.424  12.216  -0.787  1.00  0.00     0.185 C 
ATOM     34  NH2 ARG A   3      21.650  11.657   0.510  1.00  0.00    -0.370 N 
ATOM     35  H   UNL     1      22.660  10.786  -1.796  1.00  0.00     0.163 HD
ATOM     36  H   UNL     1      22.235  10.800   0.621  1.00  0.00     0.159 HD
ATOM     37  H   UNL     1      21.234  12.094   1.362  1.00  0.00     0.159 HD
BRANCH  33  38
ATOM     38  NH1 ARG A   3      20.698  13.282  -0.916  1.00  0.00    -0.270 NA
ATOM     39  H   UNL     1      20.261  13.753  -0.092  1.00  0.00     0.191 HD
ENDBRANCH  33  38
ENDBRANCH  31  32
ENDBRANCH  30  31
ENDBRANCH  29  30
ENDBRANCH   5  29
ENDBRANCH   1   5
BRANCH   3  40
ATOM     40  CA  LEU A   4      21.351   8.761  -8.142  1.00  0.00     0.171 C 
BRANCH  40  41
ATOM     41  C   LEU A   4      22.717   9.220  -8.518  1.00  0.00     0.243 C 
ATOM     42  N   SER A   5      23.824   8.743  -7.765  1.00  0.00    -0.340 N 
ATOM     43  O   LEU A   4      22.882  10.030  -9.470  1.00  0.00    -0.273 OA
ATOM     44  H   UNL     1      23.663   8.037  -7.011  1.00  0.00     0.164 HD
BRANCH  42  45
ATOM     45  CA  SER A   5      25.190   9.132  -8.056  1.00  0.00     0.197 C 
BRANCH  45  46
ATOM     46  C   SER A   5      25.900   7.974  -8.679  1.00  0.00     0.245 C 
ATOM     47  N   ASN A   6      25.910   7.871 -10.097  1.00  0.00    -0.340 N 
ATOM     48  O   SER A   5      26.447   7.088  -7.969  1.00  0.00    -0.273 OA
ATOM     49  H   UNL     1      25.485   8.654 -10.644  1.00  0.00     0.164 HD
BRANCH  47  50
ATOM     50  CA  ASN A   6      26.539   6.756 -10.800  1.00  0.00     0.201 C 
BRANCH  50  51
ATOM     51  C   ASN A   6      27.990   6.644 -10.413  1.00  0.00     0.326 C 
ATOM     52  O   ASN A   6      28.793   7.579 -10.677  1.00  0.00    -0.250 OA
BRANCH  51  53
ATOM     53  OXT ASN A   6      28.447   5.501  -9.765  1.00  0.00    -0.480 OA
ATOM     54  H   UNL     1      29.419   5.409  -9.497  1.00  0.00     0.296 HD
ENDBRANCH  51  53
ENDBRANCH  50  51
BRANCH  50  55
ATOM     55  CB  ASN A   6      26.423   6.950 -12.320  1.00  0.00     0.136 C 
BRANCH  55  56
ATOM     56  CG  ASN A   6      25.009   7.182 -12.772  1.00  0.00     0.220 C 
ATOM     57  ND2 ASN A   6      24.753   8.090 -13.833  1.00  0.00    -0.370 N 
ATOM     58  OD1 ASN A   6      24.052   6.558 -12.243  1.00  0.00    -0.275 OA
ATOM     59  H   UNL     1      23.774   8.256 -14.158  1.00  0.00     0.159 HD
ATOM     60  H   UNL     1      25.532   8.601 -14.305  1.00  0.00     0.159 HD
ENDBRANCH  55  56
ENDBRANCH  50  55
ENDBRANCH  47  50
ENDBRANCH  45  46
BRANCH  45  61
ATOM     61  CB  SER A   5      25.879   9.644  -6.790  1.00  0.00     0.191 C 
BRANCH  61  62
ATOM     62  OG  SER A   5      25.878   8.679  -5.770  1.00  0.00    -0.394 OA
ATOM     63  H   UNL     1      25.074   8.847  -5.212  1.00  0.00     0.210 HD
ENDBRANCH  61  62
ENDBRANCH  45  61
ENDBRANCH  42  45
ENDBRANCH  40  41
BRANCH  40  64
ATOM     64  CB  LEU A   4      20.658   8.000  -9.275  1.00  0.00     0.038 C 
BRANCH  64  65
ATOM     65  CG  LEU A   4      21.450   6.771  -9.769  1.00  0.00    -0.015 C 
ATOM     66  CD1 LEU A   4      21.763   5.779  -8.639  1.00  0.00     0.007 C 
ATOM     67  CD2 LEU A   4      20.662   6.067 -10.878  1.00  0.00     0.007 C 
ENDBRANCH  64  65
ENDBRANCH  40  64
ENDBRANCH   3  40
TORSDOF 28
