REMARK SMILES CC(C)[C@H](NC(=O)CNC(=O)[C@H](Cc1ccccc1)NC(=O)[C@@H](N)CO)C(=O)N[C@@H](CCCNC(=N)N)C(=O)N[C@@H](CC(N)=O)C(=O)O
REMARK SMILES IDX 6 1 7 2 5 3 8 5 9 6 10 7 11 8 12 10 20 11 21 12 22 13 23 15
REMARK SMILES IDX 24 16 25 19 26 20 13 22 14 23 15 24 19 25 16 26 18 27 17 28
REMARK SMILES IDX 4 29 27 30 29 31 28 32 30 34 38 35 40 36 39 37 41 39 46 40
REMARK SMILES IDX 47 41 48 42 42 44 43 45 44 46 45 47 31 50 32 51 33 52 34 53
REMARK SMILES IDX 35 54 37 55 36 59 2 61 1 62 3 63
REMARK H PARENT 5 4 9 9 20 14 24 17 24 18 26 21 29 33 40 38 48 43 44 48 44 49
REMARK H PARENT 34 56 37 57 37 58 36 60
ROOT
ATOM      1  C   GLY A   3      20.043  10.096  -6.468  1.00  0.00     0.240 C 
ATOM      2  O   GLY A   3      20.172   9.194  -5.594  1.00  0.00    -0.273 OA
ATOM      3  N   VAL A   4      20.566   9.926  -7.775  1.00  0.00    -0.343 N 
ATOM      4  H   UNL     1      20.473  10.713  -8.456  1.00  0.00     0.164 HD
ENDROOT
BRANCH   1   5
ATOM      5  CA  GLY A   3      19.354  11.373  -6.148  1.00  0.00     0.216 C 
BRANCH   5   6
ATOM      6  N   GLY A   3      18.113  11.081  -5.476  1.00  0.00    -0.345 N 
ATOM      7  C   PHE A   2      16.898  11.757  -5.770  1.00  0.00     0.243 C 
ATOM      8  O   PHE A   2      16.904  12.791  -6.493  1.00  0.00    -0.273 OA
ATOM      9  H   UNL     1      18.213  10.607  -4.551  1.00  0.00     0.164 HD
BRANCH   7  10
ATOM     10  CA  PHE A   2      15.659  11.317  -5.059  1.00  0.00     0.175 C 
BRANCH  10  11
ATOM     11  N   PHE A   2      14.461  11.740  -5.770  1.00  0.00    -0.343 N 
ATOM     12  C   SER A   1      13.916  13.049  -5.638  1.00  0.00     0.239 C 
ATOM     13  O   SER A   1      14.442  13.869  -4.836  1.00  0.00    -0.273 OA
ATOM     14  H   UNL     1      13.877  10.998  -6.214  1.00  0.00     0.164 HD
BRANCH  12  15
ATOM     15  CA  SER A   1      12.662  13.408  -6.392  1.00  0.00     0.167 C 
BRANCH  15  16
ATOM     16  N   SER A   1      12.472  14.860  -6.379  1.00  0.00    -0.318 NA
ATOM     17  H   UNL     1      11.538  15.085  -6.793  1.00  0.00     0.119 HD
ATOM     18  H   UNL     1      13.200  15.315  -6.977  1.00  0.00     0.119 HD
ENDBRANCH  15  16
BRANCH  15  19
ATOM     19  CB  SER A   1      12.691  12.877  -7.846  1.00  0.00     0.184 C 
BRANCH  19  20
ATOM     20  OG  SER A   1      11.437  13.052  -8.442  1.00  0.00    -0.394 OA
ATOM     21  H   UNL     1      11.538  12.776  -9.391  1.00  0.00     0.210 HD
ENDBRANCH  19  20
ENDBRANCH  15  19
ENDBRANCH  12  15
ENDBRANCH  10  11
BRANCH  10  22
ATOM     22  CB  PHE A   2      15.628   9.778  -4.890  1.00  0.00     0.070 C 
BRANCH  22  23
ATOM     23  CG  PHE A   2      14.456   9.290  -4.088  1.00  0.00    -0.045 A 
ATOM     24  CD1 PHE A   2      13.910  10.047  -3.033  1.00  0.00     0.004 A 
ATOM     25  CD2 PHE A   2      13.976   7.991  -4.310  1.00  0.00     0.004 A 
ATOM     26  CE1 PHE A   2      12.872   9.537  -2.263  1.00  0.00     0.000 A 
ATOM     27  CE2 PHE A   2      12.944   7.479  -3.524  1.00  0.00     0.000 A 
ATOM     28  CZ  PHE A   2      12.389   8.254  -2.506  1.00  0.00     0.000 A 
ENDBRANCH  22  23
ENDBRANCH  10  22
ENDBRANCH   7  10
ENDBRANCH   5   6
ENDBRANCH   1   5
BRANCH   3  29
ATOM     29  CA  VAL A   4      21.338   8.760  -8.168  1.00  0.00     0.174 C 
BRANCH  29  30
ATOM     30  C   VAL A   4      22.713   9.212  -8.532  1.00  0.00     0.243 C 
ATOM     31  N   ARG A   5      23.817   8.707  -7.793  1.00  0.00    -0.343 N 
ATOM     32  O   VAL A   4      22.889  10.048  -9.459  1.00  0.00    -0.273 OA
ATOM     33  H   UNL     1      23.658   7.978  -7.060  1.00  0.00     0.164 HD
BRANCH  31  34
ATOM     34  CA  ARG A   5      25.182   9.115  -8.071  1.00  0.00     0.171 C 
BRANCH  34  35
ATOM     35  C   ARG A   5      25.901   7.966  -8.685  1.00  0.00     0.243 C 
ATOM     36  N   ASN A   6      25.914   7.864 -10.102  1.00  0.00    -0.341 N 
ATOM     37  O   ARG A   5      26.450   7.085  -7.970  1.00  0.00    -0.273 OA
ATOM     38  H   UNL     1      25.490   8.647 -10.650  1.00  0.00     0.164 HD
BRANCH  36  39
ATOM     39  CA  ASN A   6      26.543   6.751 -10.804  1.00  0.00     0.201 C 
BRANCH  39  40
ATOM     40  C   ASN A   6      27.993   6.642 -10.417  1.00  0.00     0.326 C 
ATOM     41  O   ASN A   6      28.794   7.579 -10.677  1.00  0.00    -0.250 OA
BRANCH  40  42
ATOM     42  OXT ASN A   6      28.452   5.498  -9.771  1.00  0.00    -0.480 OA
ATOM     43  H   UNL     1      29.425   5.408  -9.502  1.00  0.00     0.296 HD
ENDBRANCH  40  42
ENDBRANCH  39  40
BRANCH  39  44
ATOM     44  CB  ASN A   6      26.425   6.947 -12.324  1.00  0.00     0.136 C 
BRANCH  44  45
ATOM     45  CG  ASN A   6      25.011   7.181 -12.774  1.00  0.00     0.220 C 
ATOM     46  ND2 ASN A   6      24.754   8.091 -13.834  1.00  0.00    -0.370 N 
ATOM     47  OD1 ASN A   6      24.053   6.558 -12.243  1.00  0.00    -0.275 OA
ATOM     48  H   UNL     1      23.775   8.259 -14.156  1.00  0.00     0.159 HD
ATOM     49  H   UNL     1      25.533   8.601 -14.306  1.00  0.00     0.159 HD
ENDBRANCH  44  45
ENDBRANCH  39  44
ENDBRANCH  36  39
ENDBRANCH  34  35
BRANCH  34  50
ATOM     50  CB  ARG A   5      25.855   9.597  -6.792  1.00  0.00     0.037 C 
BRANCH  50  51
ATOM     51  CG  ARG A   5      25.166  10.858  -6.272  1.00  0.00     0.024 C 
BRANCH  51  52
ATOM     52  CD  ARG A   5      25.841  11.389  -5.016  1.00  0.00     0.116 C 
BRANCH  52  53
ATOM     53  NE  ARG A   5      25.378  10.684  -3.823  1.00  0.00    -0.357 N 
ATOM     54  CZ  ARG A   5      25.469  11.279  -2.527  1.00  0.00     0.185 C 
ATOM     55  NH2 ARG A   5      26.107  12.541  -2.350  1.00  0.00    -0.370 N 
ATOM     56  H   UNL     1      24.903   9.757  -3.921  1.00  0.00     0.163 HD
ATOM     57  H   UNL     1      26.085  13.006  -1.415  1.00  0.00     0.159 HD
ATOM     58  H   UNL     1      26.693  12.983  -3.091  1.00  0.00     0.159 HD
BRANCH  54  59
ATOM     59  NH1 ARG A   5      24.959  10.679  -1.499  1.00  0.00    -0.270 NA
ATOM     60  H   UNL     1      24.478   9.755  -1.583  1.00  0.00     0.191 HD
ENDBRANCH  54  59
ENDBRANCH  52  53
ENDBRANCH  51  52
ENDBRANCH  50  51
ENDBRANCH  34  50
ENDBRANCH  31  34
ENDBRANCH  29  30
BRANCH  29  61
ATOM     61  CB  VAL A   4      20.627   7.976  -9.296  1.00  0.00     0.015 C 
ATOM     62  CG1 VAL A   4      21.451   6.761  -9.740  1.00  0.00     0.010 C 
ATOM     63  CG2 VAL A   4      20.242   8.821 -10.525  1.00  0.00     0.010 C 
ENDBRANCH  29  61
ENDBRANCH   3  29
TORSDOF 25
