REMARK SMILES CC(C)C[C@H](NC(=O)[C@@H]1CCCN1C(=O)[C@@H](N)CO)C(=O)N[C@@H](C)C(=O)N[C@@H](CCCNC(=N)N)C(=O)N[C@@H](CC(N)=O)C(=O)O
REMARK SMILES IDX 20 1 21 2 22 3 5 5 6 6 7 7 8 8 9 10 13 11 12 12 10 13 11 14
REMARK SMILES IDX 14 15 15 16 16 17 17 18 18 21 19 22 4 24 2 25 1 26 3 27
REMARK SMILES IDX 23 28 24 29 25 30 27 31 26 32 28 34 36 35 38 36 37 37 39 39
REMARK SMILES IDX 44 40 45 41 46 42 40 44 41 45 42 46 43 47 29 50 30 51 31 52
REMARK SMILES IDX 32 53 33 54 35 55 34 59
REMARK H PARENT 22 4 6 9 17 19 17 20 19 23 27 33 38 38 46 43 42 48 42 49 32 56
REMARK H PARENT 35 57 35 58 34 60
ROOT
ATOM      1  C   LEU A   3      20.027  10.063  -6.463  1.00  0.00     0.243 C 
ATOM      2  O   LEU A   3      20.156   9.140  -5.614  1.00  0.00    -0.273 OA
ATOM      3  N   ALA A   4      20.558   9.913  -7.771  1.00  0.00    -0.343 N 
ATOM      4  H   UNL     1      20.397  10.661  -8.484  1.00  0.00     0.164 HD
ENDROOT
BRANCH   1   5
ATOM      5  CA  LEU A   3      19.296  11.321  -6.120  1.00  0.00     0.171 C 
BRANCH   5   6
ATOM      6  N   LEU A   3      18.015  10.992  -5.516  1.00  0.00    -0.343 N 
ATOM      7  C   PRO A   2      16.852  11.779  -5.745  1.00  0.00     0.243 C 
ATOM      8  O   PRO A   2      16.920  12.826  -6.444  1.00  0.00    -0.273 OA
ATOM      9  H   UNL     1      17.965  10.208  -4.826  1.00  0.00     0.164 HD
BRANCH   7  10
ATOM     10  CA  PRO A   2      15.537  11.366  -5.143  1.00  0.00     0.174 C 
ATOM     11  N   PRO A   2      15.397   9.913  -5.109  1.00  0.00    -0.329 N 
ATOM     12  CD  PRO A   2      15.287   9.395  -3.755  1.00  0.00     0.120 C 
ATOM     13  CB  PRO A   2      15.393  11.831  -3.693  1.00  0.00     0.037 C 
ATOM     14  CG  PRO A   2      15.519  10.580  -2.827  1.00  0.00     0.024 C 
BRANCH  11  15
ATOM     15  C   SER A   1      15.325   9.047  -6.263  1.00  0.00     0.242 C 
ATOM     16  O   SER A   1      15.212   7.803  -6.087  1.00  0.00    -0.273 OA
BRANCH  15  17
ATOM     17  CA  SER A   1      15.466   9.580  -7.675  1.00  0.00     0.167 C 
BRANCH  17  18
ATOM     18  N   SER A   1      16.870   9.521  -8.088  1.00  0.00    -0.318 NA
ATOM     19  H   UNL     1      17.185   8.524  -8.132  1.00  0.00     0.119 HD
ATOM     20  H   UNL     1      16.960   9.925  -9.048  1.00  0.00     0.119 HD
ENDBRANCH  17  18
BRANCH  17  21
ATOM     21  CB  SER A   1      14.551   8.841  -8.672  1.00  0.00     0.184 C 
BRANCH  21  22
ATOM     22  OG  SER A   1      14.952   7.507  -8.833  1.00  0.00    -0.394 OA
ATOM     23  H   UNL     1      14.316   7.104  -9.480  1.00  0.00     0.210 HD
ENDBRANCH  21  22
ENDBRANCH  17  21
ENDBRANCH  15  17
ENDBRANCH  11  15
ENDBRANCH   7  10
ENDBRANCH   5   6
BRANCH   5  24
ATOM     24  CB  LEU A   3      20.131  12.234  -5.210  1.00  0.00     0.038 C 
BRANCH  24  25
ATOM     25  CG  LEU A   3      20.411  11.668  -3.790  1.00  0.00    -0.015 C 
ATOM     26  CD1 LEU A   3      21.813  12.071  -3.327  1.00  0.00     0.007 C 
ATOM     27  CD2 LEU A   3      19.367  12.149  -2.778  1.00  0.00     0.007 C 
ENDBRANCH  24  25
ENDBRANCH   5  24
ENDBRANCH   1   5
BRANCH   3  28
ATOM     28  CA  ALA A   4      21.339   8.750  -8.152  1.00  0.00     0.168 C 
ATOM     29  CB  ALA A   4      20.660   8.011  -9.296  1.00  0.00     0.041 C 
BRANCH  28  30
ATOM     30  C   ALA A   4      22.707   9.200  -8.530  1.00  0.00     0.242 C 
ATOM     31  N   ARG A   5      23.816   8.707  -7.791  1.00  0.00    -0.343 N 
ATOM     32  O   ALA A   4      22.874  10.027  -9.468  1.00  0.00    -0.273 OA
ATOM     33  H   UNL     1      23.660   7.985  -7.050  1.00  0.00     0.164 HD
BRANCH  31  34
ATOM     34  CA  ARG A   5      25.180   9.117  -8.072  1.00  0.00     0.171 C 
BRANCH  34  35
ATOM     35  C   ARG A   5      25.901   7.968  -8.686  1.00  0.00     0.243 C 
ATOM     36  N   ASN A   6      25.916   7.866 -10.103  1.00  0.00    -0.341 N 
ATOM     37  O   ARG A   5      26.449   7.087  -7.970  1.00  0.00    -0.273 OA
ATOM     38  H   UNL     1      25.496   8.651 -10.651  1.00  0.00     0.164 HD
BRANCH  36  39
ATOM     39  CA  ASN A   6      26.543   6.751 -10.804  1.00  0.00     0.201 C 
BRANCH  39  40
ATOM     40  C   ASN A   6      27.994   6.642 -10.417  1.00  0.00     0.326 C 
ATOM     41  O   ASN A   6      28.795   7.579 -10.677  1.00  0.00    -0.250 OA
BRANCH  40  42
ATOM     42  OXT ASN A   6      28.453   5.498  -9.772  1.00  0.00    -0.480 OA
ATOM     43  H   UNL     1      29.426   5.407  -9.504  1.00  0.00     0.296 HD
ENDBRANCH  40  42
ENDBRANCH  39  40
BRANCH  39  44
ATOM     44  CB  ASN A   6      26.424   6.946 -12.323  1.00  0.00     0.136 C 
BRANCH  44  45
ATOM     45  CG  ASN A   6      25.009   7.181 -12.772  1.00  0.00     0.220 C 
ATOM     46  ND2 ASN A   6      24.753   8.089 -13.834  1.00  0.00    -0.370 N 
ATOM     47  OD1 ASN A   6      24.051   6.563 -12.238  1.00  0.00    -0.275 OA
ATOM     48  H   UNL     1      23.775   8.258 -14.156  1.00  0.00     0.159 HD
ATOM     49  H   UNL     1      25.533   8.595 -14.309  1.00  0.00     0.159 HD
ENDBRANCH  44  45
ENDBRANCH  39  44
ENDBRANCH  36  39
ENDBRANCH  34  35
BRANCH  34  50
ATOM     50  CB  ARG A   5      25.855   9.600  -6.793  1.00  0.00     0.037 C 
BRANCH  50  51
ATOM     51  CG  ARG A   5      25.162  10.858  -6.270  1.00  0.00     0.024 C 
BRANCH  51  52
ATOM     52  CD  ARG A   5      25.838  11.390  -5.014  1.00  0.00     0.116 C 
BRANCH  52  53
ATOM     53  NE  ARG A   5      25.377  10.686  -3.820  1.00  0.00    -0.357 N 
ATOM     54  CZ  ARG A   5      25.469  11.281  -2.527  1.00  0.00     0.185 C 
ATOM     55  NH2 ARG A   5      26.107  12.546  -2.352  1.00  0.00    -0.370 N 
ATOM     56  H   UNL     1      24.893   9.763  -3.911  1.00  0.00     0.163 HD
ATOM     57  H   UNL     1      26.696  12.982  -3.094  1.00  0.00     0.159 HD
ATOM     58  H   UNL     1      26.080  13.024  -1.424  1.00  0.00     0.159 HD
BRANCH  54  59
ATOM     59  NH1 ARG A   5      24.954  10.672  -1.507  1.00  0.00    -0.270 NA
ATOM     60  H   UNL     1      24.996  11.077  -0.545  1.00  0.00     0.191 HD
ENDBRANCH  54  59
ENDBRANCH  52  53
ENDBRANCH  51  52
ENDBRANCH  50  51
ENDBRANCH  34  50
ENDBRANCH  31  34
ENDBRANCH  28  30
ENDBRANCH   3  28
TORSDOF 24
