REMARK SMILES CC(C)C[C@H](NC(=O)[C@H](CCCNC(=N)N)NC(=O)[C@H](Cc1ccccc1)NC(=O)[C@@H](N)CO)C(=O)N[C@@H](CCCNC(=N)N)C(=O)N[C@@H](CCCCN)C(=O)O
REMARK SMILES IDX 35 1 36 2 37 3 5 5 6 6 7 7 8 8 9 10 17 11 18 12 19 13 20 15
REMARK SMILES IDX 28 16 29 17 30 18 31 20 32 21 33 24 34 25 21 27 22 28 23 29
REMARK SMILES IDX 27 30 24 31 26 32 25 33 10 34 11 35 12 36 13 37 14 38 16 39
REMARK SMILES IDX 15 43 4 45 2 46 1 47 3 48 38 49 46 50 48 51 47 52 49 54
REMARK SMILES IDX 55 55 56 56 57 57 50 59 51 60 52 61 53 62 54 63 39 66 40 67
REMARK SMILES IDX 41 68 42 69 43 70 45 71 44 75
REMARK H PARENT 37 4 6 9 17 14 28 19 32 22 32 23 34 26 13 40 16 41 16 42 15 44
REMARK H PARENT 48 53 57 58 54 64 54 65 42 72 45 73 45 74 44 76
ROOT
ATOM      1  C   LEU A   4      22.713   9.215  -8.520  1.00  0.00     0.243 C 
ATOM      2  O   LEU A   4      22.878  10.034  -9.465  1.00  0.00    -0.273 OA
ATOM      3  N   ARG A   5      23.820   8.719  -7.782  1.00  0.00    -0.343 N 
ATOM      4  H   UNL     1      23.663   8.029  -7.012  1.00  0.00     0.164 HD
ENDROOT
BRANCH   1   5
ATOM      5  CA  LEU A   4      21.348   8.758  -8.143  1.00  0.00     0.171 C 
BRANCH   5   6
ATOM      6  N   LEU A   4      20.563   9.920  -7.778  1.00  0.00    -0.343 N 
ATOM      7  C   ARG A   3      20.038  10.084  -6.472  1.00  0.00     0.243 C 
ATOM      8  O   ARG A   3      20.153   9.164  -5.614  1.00  0.00    -0.273 OA
ATOM      9  H   UNL     1      20.403  10.661  -8.498  1.00  0.00     0.164 HD
BRANCH   7  10
ATOM     10  CA  ARG A   3      19.338  11.358  -6.142  1.00  0.00     0.171 C 
BRANCH  10  11
ATOM     11  N   ARG A   3      18.087  11.050  -5.499  1.00  0.00    -0.343 N 
ATOM     12  C   PHE A   2      16.885  11.750  -5.773  1.00  0.00     0.243 C 
ATOM     13  O   PHE A   2      16.900  12.793  -6.484  1.00  0.00    -0.273 OA
ATOM     14  H   UNL     1      18.161  10.509  -4.613  1.00  0.00     0.164 HD
BRANCH  12  15
ATOM     15  CA  PHE A   2      15.651  11.313  -5.059  1.00  0.00     0.175 C 
BRANCH  15  16
ATOM     16  N   PHE A   2      14.454  11.740  -5.768  1.00  0.00    -0.343 N 
ATOM     17  C   SER A   1      13.917  13.050  -5.633  1.00  0.00     0.239 C 
ATOM     18  O   SER A   1      14.449  13.867  -4.832  1.00  0.00    -0.273 OA
ATOM     19  H   UNL     1      13.864  11.002  -6.209  1.00  0.00     0.164 HD
BRANCH  17  20
ATOM     20  CA  SER A   1      12.661  13.412  -6.386  1.00  0.00     0.167 C 
BRANCH  20  21
ATOM     21  N   SER A   1      12.454  14.861  -6.399  1.00  0.00    -0.318 NA
ATOM     22  H   UNL     1      13.315  15.338  -6.756  1.00  0.00     0.119 HD
ATOM     23  H   UNL     1      12.285  15.191  -5.420  1.00  0.00     0.119 HD
ENDBRANCH  20  21
BRANCH  20  24
ATOM     24  CB  SER A   1      12.689  12.887  -7.840  1.00  0.00     0.184 C 
BRANCH  24  25
ATOM     25  OG  SER A   1      11.438  13.053  -8.445  1.00  0.00    -0.394 OA
ATOM     26  H   UNL     1      10.839  12.360  -8.061  1.00  0.00     0.210 HD
ENDBRANCH  24  25
ENDBRANCH  20  24
ENDBRANCH  17  20
ENDBRANCH  15  16
BRANCH  15  27
ATOM     27  CB  PHE A   2      15.613   9.773  -4.891  1.00  0.00     0.070 C 
BRANCH  27  28
ATOM     28  CG  PHE A   2      14.444   9.289  -4.090  1.00  0.00    -0.045 A 
ATOM     29  CD1 PHE A   2      13.903  10.046  -3.033  1.00  0.00     0.004 A 
ATOM     30  CD2 PHE A   2      13.968   7.989  -4.310  1.00  0.00     0.004 A 
ATOM     31  CE1 PHE A   2      12.869   9.535  -2.260  1.00  0.00     0.000 A 
ATOM     32  CE2 PHE A   2      12.939   7.477  -3.521  1.00  0.00     0.000 A 
ATOM     33  CZ  PHE A   2      12.386   8.252  -2.502  1.00  0.00     0.000 A 
ENDBRANCH  27  28
ENDBRANCH  15  27
ENDBRANCH  12  15
ENDBRANCH  10  11
BRANCH  10  34
ATOM     34  CB  ARG A   3      20.194  12.253  -5.240  1.00  0.00     0.037 C 
BRANCH  34  35
ATOM     35  CG  ARG A   3      20.407  11.712  -3.810  1.00  0.00     0.024 C 
BRANCH  35  36
ATOM     36  CD  ARG A   3      21.801  12.063  -3.294  1.00  0.00     0.116 C 
BRANCH  36  37
ATOM     37  NE  ARG A   3      21.912  11.727  -1.874  1.00  0.00    -0.357 N 
ATOM     38  CZ  ARG A   3      21.937  10.378  -1.383  1.00  0.00     0.185 C 
ATOM     39  NH2 ARG A   3      21.926  10.139   0.027  1.00  0.00    -0.370 N 
ATOM     40  H   UNL     1      21.986  12.510  -1.186  1.00  0.00     0.163 HD
ATOM     41  H   UNL     1      21.959   9.167   0.407  1.00  0.00     0.159 HD
ATOM     42  H   UNL     1      21.885  10.938   0.697  1.00  0.00     0.159 HD
BRANCH  38  43
ATOM     43  NH1 ARG A   3      22.004   9.381  -2.208  1.00  0.00    -0.270 NA
ATOM     44  H   UNL     1      22.037   8.392  -1.875  1.00  0.00     0.191 HD
ENDBRANCH  38  43
ENDBRANCH  36  37
ENDBRANCH  35  36
ENDBRANCH  34  35
ENDBRANCH  10  34
ENDBRANCH   7  10
ENDBRANCH   5   6
BRANCH   5  45
ATOM     45  CB  LEU A   4      20.658   7.999  -9.278  1.00  0.00     0.038 C 
BRANCH  45  46
ATOM     46  CG  LEU A   4      21.451   6.769  -9.772  1.00  0.00    -0.015 C 
ATOM     47  CD1 LEU A   4      21.762   5.778  -8.640  1.00  0.00     0.007 C 
ATOM     48  CD2 LEU A   4      20.663   6.066 -10.880  1.00  0.00     0.007 C 
ENDBRANCH  45  46
ENDBRANCH   5  45
ENDBRANCH   1   5
BRANCH   3  49
ATOM     49  CA  ARG A   5      25.183   9.120  -8.066  1.00  0.00     0.171 C 
BRANCH  49  50
ATOM     50  C   ARG A   5      25.899   7.967  -8.679  1.00  0.00     0.243 C 
ATOM     51  N   LYS A   6      25.971   7.909 -10.093  1.00  0.00    -0.341 N 
ATOM     52  O   ARG A   5      26.426   7.070  -7.967  1.00  0.00    -0.273 OA
ATOM     53  H   UNL     1      25.912   8.825 -10.588  1.00  0.00     0.164 HD
BRANCH  51  54
ATOM     54  CA  LYS A   6      26.537   6.781 -10.811  1.00  0.00     0.192 C 
BRANCH  54  55
ATOM     55  C   LYS A   6      27.988   6.635 -10.438  1.00  0.00     0.326 C 
ATOM     56  O   LYS A   6      28.801   7.568 -10.677  1.00  0.00    -0.250 OA
BRANCH  55  57
ATOM     57  OXT LYS A   6      28.434   5.464  -9.833  1.00  0.00    -0.480 OA
ATOM     58  H   UNL     1      29.407   5.350  -9.577  1.00  0.00     0.296 HD
ENDBRANCH  55  57
ENDBRANCH  54  55
BRANCH  54  59
ATOM     59  CB  LYS A   6      26.406   7.014 -12.327  1.00  0.00     0.037 C 
BRANCH  59  60
ATOM     60  CG  LYS A   6      24.948   7.086 -12.831  1.00  0.00     0.004 C 
BRANCH  60  61
ATOM     61  CD  LYS A   6      24.166   8.398 -12.626  1.00  0.00     0.015 C 
BRANCH  61  62
ATOM     62  CE  LYS A   6      24.842   9.620 -13.270  1.00  0.00     0.077 C 
BRANCH  62  63
ATOM     63  NZ  LYS A   6      23.977  10.796 -13.204  1.00  0.00    -0.330 NA
ATOM     64  H   UNL     1      23.086  10.591 -13.712  1.00  0.00     0.118 HD
ATOM     65  H   UNL     1      23.737  10.984 -12.203  1.00  0.00     0.118 HD
ENDBRANCH  62  63
ENDBRANCH  61  62
ENDBRANCH  60  61
ENDBRANCH  59  60
ENDBRANCH  54  59
ENDBRANCH  51  54
ENDBRANCH  49  50
BRANCH  49  66
ATOM     66  CB  ARG A   5      25.860   9.603  -6.790  1.00  0.00     0.037 C 
BRANCH  66  67
ATOM     67  CG  ARG A   5      25.163  10.859  -6.267  1.00  0.00     0.024 C 
BRANCH  67  68
ATOM     68  CD  ARG A   5      25.838  11.392  -5.012  1.00  0.00     0.116 C 
BRANCH  68  69
ATOM     69  NE  ARG A   5      25.378  10.688  -3.818  1.00  0.00    -0.357 N 
ATOM     70  CZ  ARG A   5      25.476  11.282  -2.525  1.00  0.00     0.185 C 
ATOM     71  NH2 ARG A   5      26.107  12.551  -2.353  1.00  0.00    -0.370 N 
ATOM     72  H   UNL     1      24.894   9.765  -3.908  1.00  0.00     0.163 HD
ATOM     73  H   UNL     1      26.083  13.027  -1.424  1.00  0.00     0.159 HD
ATOM     74  H   UNL     1      26.689  12.992  -3.098  1.00  0.00     0.159 HD
BRANCH  70  75
ATOM     75  NH1 ARG A   5      24.980  10.666  -1.501  1.00  0.00    -0.270 NA
ATOM     76  H   UNL     1      25.027  11.069  -0.539  1.00  0.00     0.191 HD
ENDBRANCH  70  75
ENDBRANCH  68  69
ENDBRANCH  67  68
ENDBRANCH  66  67
ENDBRANCH  49  66
ENDBRANCH   3  49
TORSDOF 34
