REMARK SMILES N=C(N)NCCC[C@H](NC(=O)[C@@H]1CCCN1C(=O)[C@H](CCCNC(=N)N)NC(=O)[C@H](Cc1ccccc1)NC(=O)[C@@H](N)CO)C(=O)N[C@@H](CC(N)=O)C(=O)O
REMARK SMILES IDX 16 1 12 2 13 3 14 4 15 5 17 6 18 7 19 8 27 9 28 10 29 11
REMARK SMILES IDX 30 13 38 14 39 15 40 16 41 18 42 19 43 22 44 23 31 25 32 26
REMARK SMILES IDX 33 27 37 28 34 29 36 30 35 31 20 32 21 33 22 34 23 35 24 36
REMARK SMILES IDX 26 37 25 41 10 43 9 44 11 45 8 47 45 48 47 49 46 50 48 52
REMARK SMILES IDX 53 53 54 54 55 55 49 57 50 58 51 59 52 60 7 63 6 64 5 65
REMARK SMILES IDX 4 66 2 67 3 68 1 72
REMARK H PARENT 27 12 38 17 42 20 42 21 44 24 23 38 26 39 26 40 25 42 9 46
REMARK H PARENT 47 51 55 56 51 61 51 62 4 69 3 70 3 71 1 73
ROOT
ATOM      1  N   PRO A   4      20.655   9.879  -7.792  1.00  0.00    -0.329 N 
ATOM      2  CA  PRO A   4      21.112  10.956  -8.667  1.00  0.00     0.174 C 
ATOM      3  CB  PRO A   4      22.157  10.315  -9.581  1.00  0.00     0.037 C 
ATOM      4  CG  PRO A   4      21.865   8.820  -9.545  1.00  0.00     0.024 C 
ATOM      5  CD  PRO A   4      21.150   8.580  -8.222  1.00  0.00     0.120 C 
ENDROOT
BRANCH   1   6
ATOM      6  C   ARG A   3      20.065  10.066  -6.500  1.00  0.00     0.245 C 
ATOM      7  O   ARG A   3      20.145   9.140  -5.647  1.00  0.00    -0.272 OA
BRANCH   6   8
ATOM      8  CA  ARG A   3      19.351  11.347  -6.156  1.00  0.00     0.171 C 
BRANCH   8   9
ATOM      9  N   ARG A   3      18.096  11.035  -5.517  1.00  0.00    -0.343 N 
ATOM     10  C   PHE A   2      16.893  11.746  -5.776  1.00  0.00     0.243 C 
ATOM     11  O   PHE A   2      16.908  12.791  -6.484  1.00  0.00    -0.273 OA
ATOM     12  H   UNL     1      18.174  10.482  -4.639  1.00  0.00     0.164 HD
BRANCH  10  13
ATOM     13  CA  PHE A   2      15.656  11.313  -5.059  1.00  0.00     0.175 C 
BRANCH  13  14
ATOM     14  N   PHE A   2      14.459  11.740  -5.770  1.00  0.00    -0.343 N 
ATOM     15  C   SER A   1      13.915  13.048  -5.636  1.00  0.00     0.239 C 
ATOM     16  O   SER A   1      14.443  13.869  -4.835  1.00  0.00    -0.273 OA
ATOM     17  H   UNL     1      13.880  11.000  -6.221  1.00  0.00     0.164 HD
BRANCH  15  18
ATOM     18  CA  SER A   1      12.660  13.408  -6.388  1.00  0.00     0.167 C 
BRANCH  18  19
ATOM     19  N   SER A   1      12.477  14.861  -6.380  1.00  0.00    -0.318 NA
ATOM     20  H   UNL     1      13.176  15.307  -7.019  1.00  0.00     0.119 HD
ATOM     21  H   UNL     1      11.523  15.087  -6.744  1.00  0.00     0.119 HD
ENDBRANCH  18  19
BRANCH  18  22
ATOM     22  CB  SER A   1      12.685  12.868  -7.839  1.00  0.00     0.184 C 
BRANCH  22  23
ATOM     23  OG  SER A   1      11.438  13.053  -8.451  1.00  0.00    -0.394 OA
ATOM     24  H   UNL     1      11.469  13.933  -8.911  1.00  0.00     0.210 HD
ENDBRANCH  22  23
ENDBRANCH  18  22
ENDBRANCH  15  18
ENDBRANCH  13  14
BRANCH  13  25
ATOM     25  CB  PHE A   2      15.615   9.774  -4.888  1.00  0.00     0.070 C 
BRANCH  25  26
ATOM     26  CG  PHE A   2      14.444   9.290  -4.090  1.00  0.00    -0.045 A 
ATOM     27  CD1 PHE A   2      13.903  10.048  -3.033  1.00  0.00     0.004 A 
ATOM     28  CD2 PHE A   2      13.968   7.990  -4.309  1.00  0.00     0.004 A 
ATOM     29  CE1 PHE A   2      12.869   9.537  -2.260  1.00  0.00     0.000 A 
ATOM     30  CE2 PHE A   2      12.939   7.478  -3.520  1.00  0.00     0.000 A 
ATOM     31  CZ  PHE A   2      12.386   8.254  -2.502  1.00  0.00     0.000 A 
ENDBRANCH  25  26
ENDBRANCH  13  25
ENDBRANCH  10  13
ENDBRANCH   8   9
BRANCH   8  32
ATOM     32  CB  ARG A   3      20.193  12.244  -5.241  1.00  0.00     0.037 C 
BRANCH  32  33
ATOM     33  CG  ARG A   3      20.424  11.685  -3.819  1.00  0.00     0.024 C 
BRANCH  33  34
ATOM     34  CD  ARG A   3      21.804  12.087  -3.299  1.00  0.00     0.116 C 
BRANCH  34  35
ATOM     35  NE  ARG A   3      21.996  11.603  -1.932  1.00  0.00    -0.357 N 
ATOM     36  CZ  ARG A   3      21.374  12.210  -0.789  1.00  0.00     0.185 C 
ATOM     37  NH2 ARG A   3      21.573  11.645   0.509  1.00  0.00    -0.370 N 
ATOM     38  H   UNL     1      22.649  10.802  -1.779  1.00  0.00     0.163 HD
ATOM     39  H   UNL     1      21.132  12.073   1.353  1.00  0.00     0.159 HD
ATOM     40  H   UNL     1      22.160  10.790   0.628  1.00  0.00     0.159 HD
BRANCH  36  41
ATOM     41  NH1 ARG A   3      20.643  13.272  -0.929  1.00  0.00    -0.270 NA
ATOM     42  H   UNL     1      20.183  13.734  -0.113  1.00  0.00     0.191 HD
ENDBRANCH  36  41
ENDBRANCH  34  35
ENDBRANCH  33  34
ENDBRANCH  32  33
ENDBRANCH   8  32
ENDBRANCH   6   8
ENDBRANCH   1   6
BRANCH   2  43
ATOM     43  C   PRO A   4      19.978  11.519  -9.485  1.00  0.00     0.243 C 
ATOM     44  N   ARG A   5      20.029  12.886  -9.917  1.00  0.00    -0.343 N 
ATOM     45  O   PRO A   4      19.015  10.780  -9.827  1.00  0.00    -0.273 OA
ATOM     46  H   UNL     1      20.814  13.483  -9.569  1.00  0.00     0.164 HD
BRANCH  44  47
ATOM     47  CA  ARG A   5      19.096  13.432 -10.906  1.00  0.00     0.171 C 
BRANCH  47  48
ATOM     48  C   ARG A   5      19.406  12.842 -12.259  1.00  0.00     0.243 C 
ATOM     49  N   ASN A   6      20.748  12.892 -12.781  1.00  0.00    -0.341 N 
ATOM     50  O   ARG A   5      18.475  12.322 -12.932  1.00  0.00    -0.273 OA
ATOM     51  H   UNL     1      21.486  13.337 -12.189  1.00  0.00     0.164 HD
BRANCH  49  52
ATOM     52  CA  ASN A   6      21.171  12.375 -14.092  1.00  0.00     0.201 C 
BRANCH  52  53
ATOM     53  C   ASN A   6      20.258  12.819 -15.209  1.00  0.00     0.326 C 
ATOM     54  O   ASN A   6      19.628  13.908 -15.117  1.00  0.00    -0.250 OA
BRANCH  53  55
ATOM     55  OXT ASN A   6      20.196  12.095 -16.396  1.00  0.00    -0.480 OA
ATOM     56  H   UNL     1      19.615  12.405 -17.165  1.00  0.00     0.296 HD
ENDBRANCH  53  55
ENDBRANCH  52  53
BRANCH  52  57
ATOM     57  CB  ASN A   6      21.421  10.850 -14.049  1.00  0.00     0.136 C 
BRANCH  57  58
ATOM     58  CG  ASN A   6      20.203  10.033 -13.722  1.00  0.00     0.220 C 
ATOM     59  ND2 ASN A   6      19.360   9.529 -14.757  1.00  0.00    -0.370 N 
ATOM     60  OD1 ASN A   6      19.926   9.780 -12.520  1.00  0.00    -0.275 OA
ATOM     61  H   UNL     1      18.499   8.989 -14.518  1.00  0.00     0.159 HD
ATOM     62  H   UNL     1      19.607   9.655 -15.763  1.00  0.00     0.159 HD
ENDBRANCH  57  58
ENDBRANCH  52  57
ENDBRANCH  49  52
ENDBRANCH  47  48
BRANCH  47  63
ATOM     63  CB  ARG A   5      19.204  14.972 -10.935  1.00  0.00     0.037 C 
BRANCH  63  64
ATOM     64  CG  ARG A   5      18.183  15.673 -11.855  1.00  0.00     0.024 C 
BRANCH  64  65
ATOM     65  CD  ARG A   5      16.759  15.729 -11.270  1.00  0.00     0.116 C 
BRANCH  65  66
ATOM     66  NE  ARG A   5      15.985  14.526 -11.585  1.00  0.00    -0.357 N 
ATOM     67  CZ  ARG A   5      14.639  14.313 -11.126  1.00  0.00     0.185 C 
ATOM     68  NH2 ARG A   5      13.979  13.085 -11.436  1.00  0.00    -0.370 N 
ATOM     69  H   UNL     1      16.405  13.792 -12.197  1.00  0.00     0.163 HD
ATOM     70  H   UNL     1      14.470  12.340 -11.979  1.00  0.00     0.159 HD
ATOM     71  H   UNL     1      12.998  12.915 -11.120  1.00  0.00     0.159 HD
BRANCH  67  72
ATOM     72  NH1 ARG A   5      14.003  15.213 -10.441  1.00  0.00    -0.270 NA
ATOM     73  H   UNL     1      14.415  16.134 -10.177  1.00  0.00     0.191 HD
ENDBRANCH  67  72
ENDBRANCH  65  66
ENDBRANCH  64  65
ENDBRANCH  63  64
ENDBRANCH  47  63
ENDBRANCH  44  47
ENDBRANCH   2  43
TORSDOF 29
