REMARK SMILES N=C(N)NCCC[C@H](NC(=O)CNC(=O)[C@@H]1CCCN1C(=O)[C@H](Cc1ccccc1)NC(=O)[C@@H](N)CO)C(=O)N[C@@H](CC(N)=O)C(=O)O
REMARK SMILES IDX 14 1 15 2 13 3 16 5 20 6 19 7 17 8 18 9 21 10 22 11 23 12
REMARK SMILES IDX 31 13 32 14 33 15 34 17 35 18 36 21 37 22 24 24 25 25 26 26
REMARK SMILES IDX 30 27 27 28 29 29 28 30 12 31 10 32 9 33 11 34 8 36 38 37
REMARK SMILES IDX 40 38 39 39 41 41 46 42 47 43 48 44 42 46 43 47 44 48 45 49
REMARK SMILES IDX 7 52 6 53 5 54 4 55 2 56 3 57 1 61
REMARK H PARENT 13 4 31 16 35 19 35 20 37 23 9 35 40 40 48 45 44 50 44 51 4 58
REMARK H PARENT 3 59 3 60 1 62
ROOT
ATOM      1  C   PRO A   3      20.008  10.074  -6.445  1.00  0.00     0.243 C 
ATOM      2  O   PRO A   3      20.180   9.170  -5.582  1.00  0.00    -0.273 OA
ATOM      3  N   GLY A   4      20.545   9.934  -7.756  1.00  0.00    -0.345 N 
ATOM      4  H   UNL     1      20.381  10.699  -8.450  1.00  0.00     0.164 HD
ENDROOT
BRANCH   1   5
ATOM      5  CA  PRO A   3      19.276  11.339  -6.092  1.00  0.00     0.174 C 
ATOM      6  N   PRO A   3      18.390  11.146  -4.946  1.00  0.00    -0.329 N 
ATOM      7  CD  PRO A   3      18.742  12.024  -3.839  1.00  0.00     0.120 C 
ATOM      8  CB  PRO A   3      20.266  12.435  -5.681  1.00  0.00     0.037 C 
ATOM      9  CG  PRO A   3      19.696  13.058  -4.415  1.00  0.00     0.024 C 
BRANCH   6  10
ATOM     10  C   PHE A   2      17.249  10.254  -4.998  1.00  0.00     0.246 C 
ATOM     11  O   PHE A   2      17.074   9.553  -6.032  1.00  0.00    -0.272 OA
BRANCH  10  12
ATOM     12  CA  PHE A   2      16.195  10.155  -3.910  1.00  0.00     0.176 C 
BRANCH  12  13
ATOM     13  N   PHE A   2      16.745  10.335  -2.562  1.00  0.00    -0.343 N 
ATOM     14  C   SER A   1      17.602   9.353  -1.954  1.00  0.00     0.239 C 
ATOM     15  O   SER A   1      18.045   8.393  -2.641  1.00  0.00    -0.273 OA
ATOM     16  H   UNL     1      16.416  11.136  -1.980  1.00  0.00     0.164 HD
BRANCH  14  17
ATOM     17  CA  SER A   1      17.986   9.451  -0.496  1.00  0.00     0.167 C 
BRANCH  17  18
ATOM     18  N   SER A   1      18.797  10.643  -0.238  1.00  0.00    -0.318 NA
ATOM     19  H   UNL     1      18.286  11.498  -0.558  1.00  0.00     0.119 HD
ATOM     20  H   UNL     1      19.680  10.574  -0.794  1.00  0.00     0.119 HD
ENDBRANCH  17  18
BRANCH  17  21
ATOM     21  CB  SER A   1      16.743   9.443   0.407  1.00  0.00     0.184 C 
BRANCH  21  22
ATOM     22  OG  SER A   1      17.118   9.420   1.758  1.00  0.00    -0.394 OA
ATOM     23  H   UNL     1      17.402   8.490   1.959  1.00  0.00     0.210 HD
ENDBRANCH  21  22
ENDBRANCH  17  21
ENDBRANCH  14  17
ENDBRANCH  12  13
BRANCH  12  24
ATOM     24  CB  PHE A   2      14.987  11.083  -4.181  1.00  0.00     0.070 C 
BRANCH  24  25
ATOM     25  CG  PHE A   2      15.338  12.548  -4.285  1.00  0.00    -0.045 A 
ATOM     26  CD1 PHE A   2      15.217  13.393  -3.168  1.00  0.00     0.004 A 
ATOM     27  CD2 PHE A   2      15.805  13.080  -5.500  1.00  0.00     0.004 A 
ATOM     28  CE1 PHE A   2      15.583  14.739  -3.260  1.00  0.00     0.000 A 
ATOM     29  CE2 PHE A   2      16.171  14.426  -5.587  1.00  0.00     0.000 A 
ATOM     30  CZ  PHE A   2      16.063  15.254  -4.467  1.00  0.00     0.000 A 
ENDBRANCH  24  25
ENDBRANCH  12  24
ENDBRANCH  10  12
ENDBRANCH   6  10
ENDBRANCH   1   5
BRANCH   3  31
ATOM     31  CA  GLY A   4      21.317   8.777  -8.178  1.00  0.00     0.216 C 
BRANCH  31  32
ATOM     32  C   GLY A   4      22.696   9.214  -8.529  1.00  0.00     0.240 C 
ATOM     33  N   ARG A   5      23.800   8.709  -7.788  1.00  0.00    -0.343 N 
ATOM     34  O   GLY A   4      22.874  10.033  -9.471  1.00  0.00    -0.273 OA
ATOM     35  H   UNL     1      23.634   7.992  -7.046  1.00  0.00     0.164 HD
BRANCH  33  36
ATOM     36  CA  ARG A   5      25.169   9.114  -8.069  1.00  0.00     0.171 C 
BRANCH  36  37
ATOM     37  C   ARG A   5      25.893   7.965  -8.684  1.00  0.00     0.243 C 
ATOM     38  N   ASN A   6      25.914   7.866 -10.101  1.00  0.00    -0.341 N 
ATOM     39  O   ARG A   5      26.445   7.086  -7.969  1.00  0.00    -0.273 OA
ATOM     40  H   UNL     1      25.496   8.652 -10.650  1.00  0.00     0.164 HD
BRANCH  38  41
ATOM     41  CA  ASN A   6      26.542   6.752 -10.803  1.00  0.00     0.201 C 
BRANCH  41  42
ATOM     42  C   ASN A   6      27.993   6.643 -10.415  1.00  0.00     0.326 C 
ATOM     43  O   ASN A   6      28.795   7.579 -10.677  1.00  0.00    -0.250 OA
BRANCH  42  44
ATOM     44  OXT ASN A   6      28.452   5.500  -9.768  1.00  0.00    -0.480 OA
ATOM     45  H   UNL     1      29.425   5.410  -9.500  1.00  0.00     0.296 HD
ENDBRANCH  42  44
ENDBRANCH  41  42
BRANCH  41  46
ATOM     46  CB  ASN A   6      26.424   6.947 -12.322  1.00  0.00     0.136 C 
BRANCH  46  47
ATOM     47  CG  ASN A   6      25.010   7.181 -12.772  1.00  0.00     0.220 C 
ATOM     48  ND2 ASN A   6      24.754   8.089 -13.834  1.00  0.00    -0.370 N 
ATOM     49  OD1 ASN A   6      24.051   6.563 -12.238  1.00  0.00    -0.275 OA
ATOM     50  H   UNL     1      23.775   8.257 -14.157  1.00  0.00     0.159 HD
ATOM     51  H   UNL     1      25.534   8.596 -14.309  1.00  0.00     0.159 HD
ENDBRANCH  46  47
ENDBRANCH  41  46
ENDBRANCH  38  41
ENDBRANCH  36  37
BRANCH  36  52
ATOM     52  CB  ARG A   5      25.848   9.597  -6.792  1.00  0.00     0.037 C 
BRANCH  52  53
ATOM     53  CG  ARG A   5      25.162  10.860  -6.272  1.00  0.00     0.024 C 
BRANCH  53  54
ATOM     54  CD  ARG A   5      25.840  11.389  -5.016  1.00  0.00     0.116 C 
BRANCH  54  55
ATOM     55  NE  ARG A   5      25.376  10.685  -3.823  1.00  0.00    -0.357 N 
ATOM     56  CZ  ARG A   5      25.468  11.279  -2.527  1.00  0.00     0.185 C 
ATOM     57  NH2 ARG A   5      26.106  12.541  -2.350  1.00  0.00    -0.370 N 
ATOM     58  H   UNL     1      24.900   9.758  -3.921  1.00  0.00     0.163 HD
ATOM     59  H   UNL     1      26.084  13.006  -1.415  1.00  0.00     0.159 HD
ATOM     60  H   UNL     1      26.693  12.982  -3.091  1.00  0.00     0.159 HD
BRANCH  56  61
ATOM     61  NH1 ARG A   5      24.958  10.679  -1.500  1.00  0.00    -0.270 NA
ATOM     62  H   UNL     1      24.477   9.756  -1.583  1.00  0.00     0.191 HD
ENDBRANCH  56  61
ENDBRANCH  54  55
ENDBRANCH  53  54
ENDBRANCH  52  53
ENDBRANCH  36  52
ENDBRANCH  33  36
ENDBRANCH  31  32
ENDBRANCH   3  31
TORSDOF 24
