REMARK SMILES N=C(N)NCCC[C@H](NC(=O)[C@H](Cc1ccccc1)NC(=O)[C@H](Cc1c[nH]cn1)NC(=O)[C@H](Cc1ccccc1)NC(=O)[C@@H](N)CO)C(=O)N[C@@H](CC(N)=O)C(=O)O
REMARK SMILES IDX 21 1 22 2 20 3 23 5 30 6 31 7 32 8 33 10 41 11 42 12 43 13
REMARK SMILES IDX 44 15 45 16 46 19 47 20 34 22 35 23 36 24 40 25 37 26 39 27
REMARK SMILES IDX 38 28 24 29 25 30 29 31 26 32 28 33 27 34 12 36 10 37 9 38
REMARK SMILES IDX 11 39 8 41 48 42 50 43 49 44 51 46 56 47 57 48 58 49 52 51
REMARK SMILES IDX 53 52 54 53 55 54 7 57 6 58 5 59 4 60 2 61 3 62 1 66 13 68
REMARK SMILES IDX 14 69 15 70 19 71 16 72 18 73 17 74
REMARK H PARENT 20 4 30 9 41 14 45 17 45 18 47 21 27 35 9 40 50 45 58 50 54 55
REMARK H PARENT 54 56 4 63 3 64 3 65 1 67
ROOT
ATOM      1  C   HIS A   3      20.057  10.085  -6.467  1.00  0.00     0.243 C 
ATOM      2  O   HIS A   3      20.180   9.174  -5.602  1.00  0.00    -0.273 OA
ATOM      3  N   PHE A   4      20.556   9.905  -7.785  1.00  0.00    -0.342 N 
ATOM      4  H   UNL     1      20.386  10.647  -8.502  1.00  0.00     0.164 HD
ENDROOT
BRANCH   1   5
ATOM      5  CA  HIS A   3      19.351  11.360  -6.135  1.00  0.00     0.177 C 
BRANCH   5   6
ATOM      6  N   HIS A   3      18.092  11.039  -5.512  1.00  0.00    -0.342 N 
ATOM      7  C   PHE A   2      16.891  11.747  -5.775  1.00  0.00     0.243 C 
ATOM      8  O   PHE A   2      16.907  12.792  -6.482  1.00  0.00    -0.273 OA
ATOM      9  H   UNL     1      18.168  10.474  -4.641  1.00  0.00     0.164 HD
BRANCH   7  10
ATOM     10  CA  PHE A   2      15.655  11.312  -5.059  1.00  0.00     0.175 C 
BRANCH  10  11
ATOM     11  N   PHE A   2      14.458  11.740  -5.769  1.00  0.00    -0.343 N 
ATOM     12  C   SER A   1      13.918  13.048  -5.633  1.00  0.00     0.239 C 
ATOM     13  O   SER A   1      14.448  13.866  -4.831  1.00  0.00    -0.273 OA
ATOM     14  H   UNL     1      13.875  11.001  -6.220  1.00  0.00     0.164 HD
BRANCH  12  15
ATOM     15  CA  SER A   1      12.662  13.412  -6.387  1.00  0.00     0.167 C 
BRANCH  15  16
ATOM     16  N   SER A   1      12.457  14.862  -6.397  1.00  0.00    -0.318 NA
ATOM     17  H   UNL     1      12.292  15.192  -5.418  1.00  0.00     0.119 HD
ATOM     18  H   UNL     1      13.318  15.336  -6.758  1.00  0.00     0.119 HD
ENDBRANCH  15  16
BRANCH  15  19
ATOM     19  CB  SER A   1      12.690  12.888  -7.841  1.00  0.00     0.184 C 
BRANCH  19  20
ATOM     20  OG  SER A   1      11.437  13.050  -8.444  1.00  0.00    -0.394 OA
ATOM     21  H   UNL     1      11.386  13.993  -8.750  1.00  0.00     0.210 HD
ENDBRANCH  19  20
ENDBRANCH  15  19
ENDBRANCH  12  15
ENDBRANCH  10  11
BRANCH  10  22
ATOM     22  CB  PHE A   2      15.614   9.773  -4.888  1.00  0.00     0.070 C 
BRANCH  22  23
ATOM     23  CG  PHE A   2      14.443   9.290  -4.091  1.00  0.00    -0.045 A 
ATOM     24  CD1 PHE A   2      13.903  10.047  -3.033  1.00  0.00     0.004 A 
ATOM     25  CD2 PHE A   2      13.968   7.990  -4.310  1.00  0.00     0.004 A 
ATOM     26  CE1 PHE A   2      12.869   9.536  -2.260  1.00  0.00     0.000 A 
ATOM     27  CE2 PHE A   2      12.939   7.477  -3.521  1.00  0.00     0.000 A 
ATOM     28  CZ  PHE A   2      12.386   8.253  -2.502  1.00  0.00     0.000 A 
ENDBRANCH  22  23
ENDBRANCH  10  22
ENDBRANCH   7  10
ENDBRANCH   5   6
BRANCH   5  29
ATOM     29  CB  HIS A   3      20.181  12.258  -5.206  1.00  0.00     0.093 C 
BRANCH  29  30
ATOM     30  CG  HIS A   3      20.417  11.673  -3.837  1.00  0.00     0.061 A 
ATOM     31  ND1 HIS A   3      19.568  11.818  -2.799  1.00  0.00    -0.242 NA
ATOM     32  CD2 HIS A   3      21.498  10.910  -3.455  1.00  0.00     0.107 A 
ATOM     33  CE1 HIS A   3      20.159  11.130  -1.799  1.00  0.00     0.196 A 
ATOM     34  NE2 HIS A   3      21.327  10.570  -2.169  1.00  0.00    -0.351 N 
ATOM     35  H   UNL     1      21.962   9.989  -1.579  1.00  0.00     0.167 HD
ENDBRANCH  29  30
ENDBRANCH   5  29
ENDBRANCH   1   5
BRANCH   3  36
ATOM     36  CA  PHE A   4      21.350   8.750  -8.169  1.00  0.00     0.175 C 
BRANCH  36  37
ATOM     37  C   PHE A   4      22.717   9.231  -8.506  1.00  0.00     0.243 C 
ATOM     38  N   ARG A   5      23.821   8.719  -7.776  1.00  0.00    -0.343 N 
ATOM     39  O   PHE A   4      22.889  10.055  -9.446  1.00  0.00    -0.273 OA
ATOM     40  H   UNL     1      23.662   7.991  -7.042  1.00  0.00     0.164 HD
BRANCH  38  41
ATOM     41  CA  ARG A   5      25.186   9.119  -8.067  1.00  0.00     0.171 C 
BRANCH  41  42
ATOM     42  C   ARG A   5      25.902   7.967  -8.684  1.00  0.00     0.243 C 
ATOM     43  N   ASN A   6      25.920   7.868 -10.102  1.00  0.00    -0.341 N 
ATOM     44  O   ARG A   5      26.448   7.084  -7.970  1.00  0.00    -0.273 OA
ATOM     45  H   UNL     1      25.495   8.651 -10.650  1.00  0.00     0.164 HD
BRANCH  43  46
ATOM     46  CA  ASN A   6      26.550   6.757 -10.807  1.00  0.00     0.201 C 
BRANCH  46  47
ATOM     47  C   ASN A   6      27.999   6.647 -10.417  1.00  0.00     0.326 C 
ATOM     48  O   ASN A   6      28.800   7.583 -10.678  1.00  0.00    -0.250 OA
BRANCH  47  49
ATOM     49  OXT ASN A   6      28.455   5.504  -9.768  1.00  0.00    -0.480 OA
ATOM     50  H   UNL     1      29.427   5.414  -9.498  1.00  0.00     0.296 HD
ENDBRANCH  47  49
ENDBRANCH  46  47
BRANCH  46  51
ATOM     51  CB  ASN A   6      26.432   6.954 -12.327  1.00  0.00     0.136 C 
BRANCH  51  52
ATOM     52  CG  ASN A   6      25.020   7.187 -12.785  1.00  0.00     0.220 C 
ATOM     53  ND2 ASN A   6      24.765   8.104 -13.838  1.00  0.00    -0.370 N 
ATOM     54  OD1 ASN A   6      24.064   6.549 -12.278  1.00  0.00    -0.275 OA
ATOM     55  H   UNL     1      25.544   8.625 -14.298  1.00  0.00     0.159 HD
ATOM     56  H   UNL     1      23.788   8.265 -14.169  1.00  0.00     0.159 HD
ENDBRANCH  51  52
ENDBRANCH  46  51
ENDBRANCH  43  46
ENDBRANCH  41  42
BRANCH  41  57
ATOM     57  CB  ARG A   5      25.863   9.603  -6.792  1.00  0.00     0.037 C 
BRANCH  57  58
ATOM     58  CG  ARG A   5      25.168  10.860  -6.271  1.00  0.00     0.024 C 
BRANCH  58  59
ATOM     59  CD  ARG A   5      25.841  11.392  -5.014  1.00  0.00     0.116 C 
BRANCH  59  60
ATOM     60  NE  ARG A   5      25.379  10.684  -3.823  1.00  0.00    -0.357 N 
ATOM     61  CZ  ARG A   5      25.468  11.279  -2.527  1.00  0.00     0.185 C 
ATOM     62  NH2 ARG A   5      26.103  12.542  -2.349  1.00  0.00    -0.370 N 
ATOM     63  H   UNL     1      24.907   9.756  -3.921  1.00  0.00     0.163 HD
ATOM     64  H   UNL     1      26.080  13.008  -1.415  1.00  0.00     0.159 HD
ATOM     65  H   UNL     1      26.689  12.985  -3.090  1.00  0.00     0.159 HD
BRANCH  61  66
ATOM     66  NH1 ARG A   5      24.961  10.677  -1.499  1.00  0.00    -0.270 NA
ATOM     67  H   UNL     1      24.487   9.750  -1.583  1.00  0.00     0.191 HD
ENDBRANCH  61  66
ENDBRANCH  59  60
ENDBRANCH  58  59
ENDBRANCH  57  58
ENDBRANCH  41  57
ENDBRANCH  38  41
ENDBRANCH  36  37
BRANCH  36  68
ATOM     68  CB  PHE A   4      20.714   8.052  -9.377  1.00  0.00     0.070 C 
BRANCH  68  69
ATOM     69  CG  PHE A   4      21.251   6.656  -9.629  1.00  0.00    -0.045 A 
ATOM     70  CD1 PHE A   4      20.330   5.587  -9.626  1.00  0.00     0.004 A 
ATOM     71  CD2 PHE A   4      22.615   6.361  -9.785  1.00  0.00     0.004 A 
ATOM     72  CE1 PHE A   4      20.765   4.265  -9.750  1.00  0.00     0.000 A 
ATOM     73  CE2 PHE A   4      23.047   5.032  -9.880  1.00  0.00     0.000 A 
ATOM     74  CZ  PHE A   4      22.125   3.987  -9.868  1.00  0.00     0.000 A 
ENDBRANCH  68  69
ENDBRANCH  36  68
ENDBRANCH   3  36
TORSDOF 28
