REMARK SMILES CC(C)C[C@H](NC(=O)[C@H](CCCNC(=N)N)NC(=O)[C@H](Cc1ccccc1)NC(=O)[C@@H](N)Cc1c[nH]cn1)C(=O)N[C@@H](CCCNC(=N)N)C(=O)N[C@@H](CC(N)=O)C(=O)O
REMARK SMILES IDX 7 1 8 2 6 3 9 5 17 6 18 7 19 8 20 10 28 11 29 12 30 13 31 15
REMARK SMILES IDX 32 16 33 19 34 20 38 21 35 22 37 23 36 24 21 26 22 27 23 28
REMARK SMILES IDX 27 29 24 30 26 31 25 32 10 33 11 34 12 35 13 36 14 37 16 38
REMARK SMILES IDX 15 42 5 44 39 45 41 46 40 47 42 49 50 50 52 51 51 52 53 54
REMARK SMILES IDX 58 55 59 56 60 57 54 59 55 60 56 61 57 62 43 65 44 66 45 67
REMARK SMILES IDX 46 68 47 69 49 70 48 74 4 76 2 77 1 78 3 79
REMARK H PARENT 6 4 17 9 28 14 32 17 32 18 36 25 13 39 16 40 16 41 15 43 41 48
REMARK H PARENT 52 53 60 58 56 63 56 64 46 71 49 72 49 73 48 75
ROOT
ATOM      1  C   ARG A   3      20.038  10.083  -6.470  1.00  0.00     0.243 C 
ATOM      2  O   ARG A   3      20.151   9.162  -5.614  1.00  0.00    -0.273 OA
ATOM      3  N   LEU A   4      20.565   9.921  -7.776  1.00  0.00    -0.343 N 
ATOM      4  H   UNL     1      20.405  10.663  -8.496  1.00  0.00     0.164 HD
ENDROOT
BRANCH   1   5
ATOM      5  CA  ARG A   3      19.336  11.356  -6.140  1.00  0.00     0.171 C 
BRANCH   5   6
ATOM      6  N   ARG A   3      18.086  11.047  -5.496  1.00  0.00    -0.343 N 
ATOM      7  C   PHE A   2      16.887  11.750  -5.771  1.00  0.00     0.243 C 
ATOM      8  O   PHE A   2      16.907  12.796  -6.478  1.00  0.00    -0.273 OA
ATOM      9  H   UNL     1      18.161  10.512  -4.606  1.00  0.00     0.164 HD
BRANCH   7  10
ATOM     10  CA  PHE A   2      15.648  11.315  -5.065  1.00  0.00     0.175 C 
BRANCH  10  11
ATOM     11  N   PHE A   2      14.460  11.748  -5.787  1.00  0.00    -0.343 N 
ATOM     12  C   HIS A   1      13.909  13.049  -5.626  1.00  0.00     0.237 C 
ATOM     13  O   HIS A   1      14.441  13.862  -4.821  1.00  0.00    -0.273 OA
ATOM     14  H   UNL     1      13.974  11.053  -6.394  1.00  0.00     0.164 HD
BRANCH  12  15
ATOM     15  CA  HIS A   1      12.660  13.425  -6.385  1.00  0.00     0.147 C 
BRANCH  15  16
ATOM     16  N   HIS A   1      12.483  14.878  -6.386  1.00  0.00    -0.320 NA
ATOM     17  H   UNL     1      12.323  15.194  -5.402  1.00  0.00     0.119 HD
ATOM     18  H   UNL     1      11.598  15.107  -6.895  1.00  0.00     0.119 HD
ENDBRANCH  15  16
BRANCH  15  19
ATOM     19  CB  HIS A   1      12.669  12.891  -7.839  1.00  0.00     0.086 C 
BRANCH  19  20
ATOM     20  CG  HIS A   1      13.914  13.258  -8.597  1.00  0.00     0.060 A 
ATOM     21  ND1 HIS A   1      14.895  12.384  -8.900  1.00  0.00    -0.242 NA
ATOM     22  CD2 HIS A   1      14.244  14.512  -9.062  1.00  0.00     0.107 A 
ATOM     23  CE1 HIS A   1      15.808  13.135  -9.552  1.00  0.00     0.196 A 
ATOM     24  NE2 HIS A   1      15.440  14.425  -9.663  1.00  0.00    -0.351 N 
ATOM     25  H   UNL     1      15.974  15.197 -10.120  1.00  0.00     0.167 HD
ENDBRANCH  19  20
ENDBRANCH  15  19
ENDBRANCH  12  15
ENDBRANCH  10  11
BRANCH  10  26
ATOM     26  CB  PHE A   2      15.605   9.776  -4.900  1.00  0.00     0.070 C 
BRANCH  26  27
ATOM     27  CG  PHE A   2      14.439   9.292  -4.095  1.00  0.00    -0.045 A 
ATOM     28  CD1 PHE A   2      13.902  10.048  -3.036  1.00  0.00     0.004 A 
ATOM     29  CD2 PHE A   2      13.966   7.991  -4.312  1.00  0.00     0.004 A 
ATOM     30  CE1 PHE A   2      12.869   9.536  -2.260  1.00  0.00     0.000 A 
ATOM     31  CE2 PHE A   2      12.940   7.477  -3.520  1.00  0.00     0.000 A 
ATOM     32  CZ  PHE A   2      12.387   8.253  -2.501  1.00  0.00     0.000 A 
ENDBRANCH  26  27
ENDBRANCH  10  26
ENDBRANCH   7  10
ENDBRANCH   5   6
BRANCH   5  33
ATOM     33  CB  ARG A   3      20.187  12.255  -5.239  1.00  0.00     0.037 C 
BRANCH  33  34
ATOM     34  CG  ARG A   3      20.426  11.709  -3.810  1.00  0.00     0.024 C 
BRANCH  34  35
ATOM     35  CD  ARG A   3      21.822  12.067  -3.299  1.00  0.00     0.116 C 
BRANCH  35  36
ATOM     36  NE  ARG A   3      21.969  13.515  -3.126  1.00  0.00    -0.357 N 
ATOM     37  CZ  ARG A   3      22.661  14.109  -2.017  1.00  0.00     0.185 C 
ATOM     38  NH2 ARG A   3      22.921  15.515  -2.018  1.00  0.00    -0.370 N 
ATOM     39  H   UNL     1      21.720  14.137  -3.928  1.00  0.00     0.163 HD
ATOM     40  H   UNL     1      23.423  15.969  -1.223  1.00  0.00     0.159 HD
ATOM     41  H   UNL     1      22.612  16.109  -2.819  1.00  0.00     0.159 HD
BRANCH  37  42
ATOM     42  NH1 ARG A   3      23.045  13.382  -1.015  1.00  0.00    -0.270 NA
ATOM     43  H   UNL     1      23.549  13.793  -0.198  1.00  0.00     0.191 HD
ENDBRANCH  37  42
ENDBRANCH  35  36
ENDBRANCH  34  35
ENDBRANCH  33  34
ENDBRANCH   5  33
ENDBRANCH   1   5
BRANCH   3  44
ATOM     44  CA  LEU A   4      21.349   8.760  -8.142  1.00  0.00     0.171 C 
BRANCH  44  45
ATOM     45  C   LEU A   4      22.714   9.216  -8.522  1.00  0.00     0.243 C 
ATOM     46  N   ARG A   5      23.823   8.720  -7.786  1.00  0.00    -0.343 N 
ATOM     47  O   LEU A   4      22.878  10.032  -9.469  1.00  0.00    -0.273 OA
ATOM     48  H   UNL     1      23.667   8.031  -7.015  1.00  0.00     0.164 HD
BRANCH  46  49
ATOM     49  CA  ARG A   5      25.186   9.122  -8.072  1.00  0.00     0.171 C 
BRANCH  49  50
ATOM     50  C   ARG A   5      25.900   7.968  -8.685  1.00  0.00     0.243 C 
ATOM     51  N   ASN A   6      25.913   7.864 -10.102  1.00  0.00    -0.341 N 
ATOM     52  O   ARG A   5      26.447   7.087  -7.969  1.00  0.00    -0.273 OA
ATOM     53  H   UNL     1      25.488   8.647 -10.651  1.00  0.00     0.164 HD
BRANCH  51  54
ATOM     54  CA  ASN A   6      26.542   6.751 -10.804  1.00  0.00     0.201 C 
BRANCH  54  55
ATOM     55  C   ASN A   6      27.993   6.642 -10.416  1.00  0.00     0.326 C 
ATOM     56  O   ASN A   6      28.794   7.579 -10.677  1.00  0.00    -0.250 OA
BRANCH  55  57
ATOM     57  OXT ASN A   6      28.451   5.499  -9.768  1.00  0.00    -0.480 OA
ATOM     58  H   UNL     1      29.424   5.409  -9.499  1.00  0.00     0.296 HD
ENDBRANCH  55  57
ENDBRANCH  54  55
BRANCH  54  59
ATOM     59  CB  ASN A   6      26.424   6.947 -12.323  1.00  0.00     0.136 C 
BRANCH  59  60
ATOM     60  CG  ASN A   6      25.010   7.181 -12.773  1.00  0.00     0.220 C 
ATOM     61  ND2 ASN A   6      24.753   8.090 -13.833  1.00  0.00    -0.370 N 
ATOM     62  OD1 ASN A   6      24.053   6.558 -12.243  1.00  0.00    -0.275 OA
ATOM     63  H   UNL     1      23.775   8.258 -14.156  1.00  0.00     0.159 HD
ATOM     64  H   UNL     1      25.533   8.600 -14.306  1.00  0.00     0.159 HD
ENDBRANCH  59  60
ENDBRANCH  54  59
ENDBRANCH  51  54
ENDBRANCH  49  50
BRANCH  49  65
ATOM     65  CB  ARG A   5      25.862   9.605  -6.795  1.00  0.00     0.037 C 
BRANCH  65  66
ATOM     66  CG  ARG A   5      25.164  10.860  -6.269  1.00  0.00     0.024 C 
BRANCH  66  67
ATOM     67  CD  ARG A   5      25.838  11.392  -5.013  1.00  0.00     0.116 C 
BRANCH  67  68
ATOM     68  NE  ARG A   5      25.377  10.687  -3.820  1.00  0.00    -0.357 N 
ATOM     69  CZ  ARG A   5      25.469  11.282  -2.526  1.00  0.00     0.185 C 
ATOM     70  NH2 ARG A   5      26.106  12.547  -2.351  1.00  0.00    -0.370 N 
ATOM     71  H   UNL     1      24.894   9.764  -3.912  1.00  0.00     0.163 HD
ATOM     72  H   UNL     1      26.692  12.986  -3.094  1.00  0.00     0.159 HD
ATOM     73  H   UNL     1      26.079  13.024  -1.423  1.00  0.00     0.159 HD
BRANCH  69  74
ATOM     74  NH1 ARG A   5      24.956  10.671  -1.506  1.00  0.00    -0.270 NA
ATOM     75  H   UNL     1      24.998  11.075  -0.544  1.00  0.00     0.191 HD
ENDBRANCH  69  74
ENDBRANCH  67  68
ENDBRANCH  66  67
ENDBRANCH  65  66
ENDBRANCH  49  65
ENDBRANCH  46  49
ENDBRANCH  44  45
BRANCH  44  76
ATOM     76  CB  LEU A   4      20.656   7.999  -9.274  1.00  0.00     0.038 C 
BRANCH  76  77
ATOM     77  CG  LEU A   4      21.448   6.770  -9.769  1.00  0.00    -0.015 C 
ATOM     78  CD1 LEU A   4      21.762   5.778  -8.639  1.00  0.00     0.007 C 
ATOM     79  CD2 LEU A   4      20.661   6.066 -10.878  1.00  0.00     0.007 C 
ENDBRANCH  76  77
ENDBRANCH  44  76
ENDBRANCH   3  44
TORSDOF 31
