REMARK SMILES CC(C)C[C@H](NC(=O)[C@H](Cc1ccccc1)NC(=O)[C@@H](N)CO)C(=O)N[C@@H](C)C(=O)N[C@@H](CCCNC(=N)N)C(=O)N[C@@H](CCCNC(=N)N)C(=O)O
REMARK SMILES IDX 29 1 30 2 31 3 27 5 28 6 26 7 24 8 25 9 5 11 6 12 7 13 8 14
REMARK SMILES IDX 9 16 17 17 18 18 19 19 20 21 21 22 22 25 23 26 10 28 11 29
REMARK SMILES IDX 12 30 16 31 13 32 15 33 14 34 4 35 2 36 1 37 3 38 32 39
REMARK SMILES IDX 40 40 42 41 41 42 43 44 51 45 52 46 53 47 44 49 45 50 46 51
REMARK SMILES IDX 47 52 48 53 50 54 49 58 33 60 34 61 35 62 36 63 37 64 39 65
REMARK SMILES IDX 38 69
REMARK H PARENT 31 4 26 10 6 15 17 20 21 23 21 24 23 27 42 43 53 48 47 55
REMARK H PARENT 50 56 50 57 49 59 36 66 39 67 39 68 38 70
ROOT
ATOM      1  C   ALA A   4      22.710   9.197  -8.533  1.00  0.00     0.242 C 
ATOM      2  O   ALA A   4      22.878  10.025  -9.470  1.00  0.00    -0.273 OA
ATOM      3  N   ARG A   5      23.817   8.706  -7.789  1.00  0.00    -0.343 N 
ATOM      4  H   UNL     1      23.660   7.985  -7.047  1.00  0.00     0.164 HD
ENDROOT
BRANCH   1   5
ATOM      5  CA  ALA A   4      21.343   8.746  -8.159  1.00  0.00     0.168 C 
ATOM      6  CB  ALA A   4      20.665   8.005  -9.302  1.00  0.00     0.041 C 
BRANCH   5   7
ATOM      7  N   ALA A   4      20.564   9.911  -7.788  1.00  0.00    -0.343 N 
ATOM      8  C   LEU A   3      20.054  10.082  -6.477  1.00  0.00     0.243 C 
ATOM      9  O   LEU A   3      20.168   9.158  -5.624  1.00  0.00    -0.273 OA
ATOM     10  H   UNL     1      20.402  10.653  -8.507  1.00  0.00     0.164 HD
BRANCH   8  11
ATOM     11  CA  LEU A   3      19.341  11.352  -6.147  1.00  0.00     0.171 C 
BRANCH  11  12
ATOM     12  N   LEU A   3      18.084  11.019  -5.538  1.00  0.00    -0.343 N 
ATOM     13  C   PHE A   2      16.887  11.744  -5.776  1.00  0.00     0.243 C 
ATOM     14  O   PHE A   2      16.906  12.795  -6.474  1.00  0.00    -0.273 OA
ATOM     15  H   UNL     1      18.156  10.385  -4.718  1.00  0.00     0.164 HD
BRANCH  13  16
ATOM     16  CA  PHE A   2      15.653  11.312  -5.056  1.00  0.00     0.175 C 
BRANCH  16  17
ATOM     17  N   PHE A   2      14.456  11.739  -5.766  1.00  0.00    -0.343 N 
ATOM     18  C   SER A   1      13.919  13.049  -5.633  1.00  0.00     0.239 C 
ATOM     19  O   SER A   1      14.449  13.867  -4.832  1.00  0.00    -0.273 OA
ATOM     20  H   UNL     1      13.869  11.000  -6.212  1.00  0.00     0.164 HD
BRANCH  18  21
ATOM     21  CA  SER A   1      12.662  13.410  -6.386  1.00  0.00     0.167 C 
BRANCH  21  22
ATOM     22  N   SER A   1      12.455  14.860  -6.398  1.00  0.00    -0.318 NA
ATOM     23  H   UNL     1      13.316  15.337  -6.755  1.00  0.00     0.119 HD
ATOM     24  H   UNL     1      12.286  15.190  -5.420  1.00  0.00     0.119 HD
ENDBRANCH  21  22
BRANCH  21  25
ATOM     25  CB  SER A   1      12.690  12.886  -7.840  1.00  0.00     0.184 C 
BRANCH  25  26
ATOM     26  OG  SER A   1      11.438  13.053  -8.445  1.00  0.00    -0.394 OA
ATOM     27  H   UNL     1      10.839  12.361  -8.060  1.00  0.00     0.210 HD
ENDBRANCH  25  26
ENDBRANCH  21  25
ENDBRANCH  18  21
ENDBRANCH  16  17
BRANCH  16  28
ATOM     28  CB  PHE A   2      15.610   9.772  -4.880  1.00  0.00     0.070 C 
BRANCH  28  29
ATOM     29  CG  PHE A   2      14.435   9.292  -4.092  1.00  0.00    -0.045 A 
ATOM     30  CD1 PHE A   2      13.898  10.048  -3.033  1.00  0.00     0.004 A 
ATOM     31  CD2 PHE A   2      13.964   7.991  -4.310  1.00  0.00     0.004 A 
ATOM     32  CE1 PHE A   2      12.866   9.535  -2.258  1.00  0.00     0.000 A 
ATOM     33  CE2 PHE A   2      12.937   7.476  -3.520  1.00  0.00     0.000 A 
ATOM     34  CZ  PHE A   2      12.384   8.252  -2.500  1.00  0.00     0.000 A 
ENDBRANCH  28  29
ENDBRANCH  16  28
ENDBRANCH  13  16
ENDBRANCH  11  12
BRANCH  11  35
ATOM     35  CB  LEU A   3      20.165  12.252  -5.216  1.00  0.00     0.038 C 
BRANCH  35  36
ATOM     36  CG  LEU A   3      20.417  11.679  -3.791  1.00  0.00    -0.015 C 
ATOM     37  CD1 LEU A   3      21.819  12.066  -3.316  1.00  0.00     0.007 C 
ATOM     38  CD2 LEU A   3      19.369  12.169  -2.781  1.00  0.00     0.007 C 
ENDBRANCH  35  36
ENDBRANCH  11  35
ENDBRANCH   8  11
ENDBRANCH   5   7
ENDBRANCH   1   5
BRANCH   3  39
ATOM     39  CA  ARG A   5      25.180   9.116  -8.069  1.00  0.00     0.171 C 
BRANCH  39  40
ATOM     40  C   ARG A   5      25.901   7.967  -8.684  1.00  0.00     0.243 C 
ATOM     41  N   ARG A   6      25.930   7.883 -10.101  1.00  0.00    -0.341 N 
ATOM     42  O   ARG A   5      26.443   7.080  -7.972  1.00  0.00    -0.273 OA
ATOM     43  H   UNL     1      25.624   8.728 -10.632  1.00  0.00     0.164 HD
BRANCH  41  44
ATOM     44  CA  ARG A   6      26.538   6.768 -10.816  1.00  0.00     0.192 C 
BRANCH  44  45
ATOM     45  C   ARG A   6      27.988   6.641 -10.429  1.00  0.00     0.326 C 
ATOM     46  O   ARG A   6      28.796   7.575 -10.678  1.00  0.00    -0.250 OA
BRANCH  45  47
ATOM     47  OXT ARG A   6      28.437   5.486  -9.797  1.00  0.00    -0.480 OA
ATOM     48  H   UNL     1      29.409   5.384  -9.529  1.00  0.00     0.296 HD
ENDBRANCH  45  47
ENDBRANCH  44  45
BRANCH  44  49
ATOM     49  CB  ARG A   6      26.422   6.991 -12.335  1.00  0.00     0.039 C 
BRANCH  49  50
ATOM     50  CG  ARG A   6      24.963   7.129 -12.802  1.00  0.00     0.024 C 
BRANCH  50  51
ATOM     51  CD  ARG A   6      24.882   7.225 -14.329  1.00  0.00     0.116 C 
BRANCH  51  52
ATOM     52  NE  ARG A   6      23.488   7.315 -14.763  1.00  0.00    -0.357 N 
ATOM     53  CZ  ARG A   6      22.701   8.509 -14.634  1.00  0.00     0.185 C 
ATOM     54  NH2 ARG A   6      21.330   8.499 -15.041  1.00  0.00    -0.370 N 
ATOM     55  H   UNL     1      23.060   6.482 -15.227  1.00  0.00     0.163 HD
ATOM     56  H   UNL     1      20.899   7.629 -15.423  1.00  0.00     0.159 HD
ATOM     57  H   UNL     1      20.740   9.357 -14.959  1.00  0.00     0.159 HD
BRANCH  53  58
ATOM     58  NH1 ARG A   6      23.229   9.594 -14.160  1.00  0.00    -0.270 NA
ATOM     59  H   UNL     1      22.677  10.475 -14.059  1.00  0.00     0.191 HD
ENDBRANCH  53  58
ENDBRANCH  51  52
ENDBRANCH  50  51
ENDBRANCH  49  50
ENDBRANCH  44  49
ENDBRANCH  41  44
ENDBRANCH  39  40
BRANCH  39  60
ATOM     60  CB  ARG A   5      25.855   9.599  -6.790  1.00  0.00     0.037 C 
BRANCH  60  61
ATOM     61  CG  ARG A   5      25.164  10.859  -6.271  1.00  0.00     0.024 C 
BRANCH  61  62
ATOM     62  CD  ARG A   5      25.838  11.391  -5.015  1.00  0.00     0.116 C 
BRANCH  62  63
ATOM     63  NE  ARG A   5      25.377  10.684  -3.823  1.00  0.00    -0.357 N 
ATOM     64  CZ  ARG A   5      25.468  11.279  -2.527  1.00  0.00     0.185 C 
ATOM     65  NH2 ARG A   5      26.105  12.541  -2.350  1.00  0.00    -0.370 N 
ATOM     66  H   UNL     1      24.898   9.760  -3.921  1.00  0.00     0.163 HD
ATOM     67  H   UNL     1      26.081  13.008  -1.416  1.00  0.00     0.159 HD
ATOM     68  H   UNL     1      26.691  12.983  -3.091  1.00  0.00     0.159 HD
BRANCH  64  69
ATOM     69  NH1 ARG A   5      24.956  10.680  -1.499  1.00  0.00    -0.270 NA
ATOM     70  H   UNL     1      24.474   9.757  -1.583  1.00  0.00     0.191 HD
ENDBRANCH  64  69
ENDBRANCH  62  63
ENDBRANCH  61  62
ENDBRANCH  60  61
ENDBRANCH  39  60
ENDBRANCH   3  39
TORSDOF 29
