REMARK SMILES CC(C)C[C@H](NC(=O)[C@H](CCC(=O)O)NC(=O)[C@@H](N)CO)C(=O)N[C@@H](C)C(=O)N[C@@H](CCCNC(=N)N)C(=O)N[C@@H](CC(N)=O)C(=O)O
REMARK SMILES IDX 22 1 23 2 24 3 5 5 6 6 7 7 8 8 9 10 15 11 16 12 17 13 18 15
REMARK SMILES IDX 19 16 20 19 21 20 10 22 11 23 12 24 13 25 14 26 4 28 2 29
REMARK SMILES IDX 1 30 3 31 25 32 26 33 27 34 29 35 28 36 30 38 38 39 40 40
REMARK SMILES IDX 39 41 41 43 46 44 47 45 48 46 42 48 43 49 44 50 45 51 31 54
REMARK SMILES IDX 32 55 33 56 34 57 35 58 37 59 36 63
REMARK H PARENT 24 4 6 9 15 14 19 17 19 18 21 21 14 27 29 37 40 42 48 47 44 52
REMARK H PARENT 44 53 34 60 37 61 37 62 36 64
ROOT
ATOM      1  C   LEU A   3      20.047  10.079  -6.474  1.00  0.00     0.243 C 
ATOM      2  O   LEU A   3      20.164   9.155  -5.622  1.00  0.00    -0.273 OA
ATOM      3  N   ALA A   4      20.562   9.913  -7.784  1.00  0.00    -0.343 N 
ATOM      4  H   UNL     1      20.402  10.658  -8.501  1.00  0.00     0.164 HD
ENDROOT
BRANCH   1   5
ATOM      5  CA  LEU A   3      19.330  11.347  -6.139  1.00  0.00     0.171 C 
BRANCH   5   6
ATOM      6  N   LEU A   3      18.075  11.013  -5.518  1.00  0.00    -0.343 N 
ATOM      7  C   GLU A   2      16.876  11.739  -5.742  1.00  0.00     0.243 C 
ATOM      8  O   GLU A   2      16.892  12.787  -6.447  1.00  0.00    -0.273 OA
ATOM      9  H   UNL     1      18.148  10.378  -4.698  1.00  0.00     0.164 HD
BRANCH   7  10
ATOM     10  CA  GLU A   2      15.625  11.285  -5.040  1.00  0.00     0.172 C 
BRANCH  10  11
ATOM     11  N   GLU A   2      14.450  11.733  -5.771  1.00  0.00    -0.343 N 
ATOM     12  C   SER A   1      13.912  13.045  -5.638  1.00  0.00     0.239 C 
ATOM     13  O   SER A   1      14.441  13.862  -4.835  1.00  0.00    -0.273 OA
ATOM     14  H   UNL     1      13.904  11.011  -6.286  1.00  0.00     0.164 HD
BRANCH  12  15
ATOM     15  CA  SER A   1      12.661  13.409  -6.395  1.00  0.00     0.167 C 
BRANCH  15  16
ATOM     16  N   SER A   1      12.472  14.861  -6.376  1.00  0.00    -0.318 NA
ATOM     17  H   UNL     1      11.540  15.089  -6.792  1.00  0.00     0.119 HD
ATOM     18  H   UNL     1      13.203  15.318  -6.970  1.00  0.00     0.119 HD
ENDBRANCH  15  16
BRANCH  15  19
ATOM     19  CB  SER A   1      12.688  12.885  -7.852  1.00  0.00     0.184 C 
BRANCH  19  20
ATOM     20  OG  SER A   1      11.432  13.060  -8.444  1.00  0.00    -0.394 OA
ATOM     21  H   UNL     1      11.534  12.804  -9.398  1.00  0.00     0.210 HD
ENDBRANCH  19  20
ENDBRANCH  15  19
ENDBRANCH  12  15
ENDBRANCH  10  11
BRANCH  10  22
ATOM     22  CB  GLU A   2      15.574   9.739  -4.912  1.00  0.00     0.047 C 
BRANCH  22  23
ATOM     23  CG  GLU A   2      14.390   9.271  -4.072  1.00  0.00     0.125 C 
BRANCH  23  24
ATOM     24  CD  GLU A   2      14.374   7.778  -3.964  1.00  0.00     0.303 C 
ATOM     25  OE1 GLU A   2      14.904   7.210  -2.972  1.00  0.00    -0.252 OA
BRANCH  24  26
ATOM     26  OE2 GLU A   2      13.811   7.016  -4.983  1.00  0.00    -0.481 OA
ATOM     27  H   UNL     1      13.806   6.004  -4.933  1.00  0.00     0.296 HD
ENDBRANCH  24  26
ENDBRANCH  23  24
ENDBRANCH  22  23
ENDBRANCH  10  22
ENDBRANCH   7  10
ENDBRANCH   5   6
BRANCH   5  28
ATOM     28  CB  LEU A   3      20.159  12.249  -5.216  1.00  0.00     0.038 C 
BRANCH  28  29
ATOM     29  CG  LEU A   3      20.416  11.679  -3.791  1.00  0.00    -0.015 C 
ATOM     30  CD1 LEU A   3      21.819  12.067  -3.319  1.00  0.00     0.007 C 
ATOM     31  CD2 LEU A   3      19.371  12.171  -2.778  1.00  0.00     0.007 C 
ENDBRANCH  28  29
ENDBRANCH   5  28
ENDBRANCH   1   5
BRANCH   3  32
ATOM     32  CA  ALA A   4      21.342   8.748  -8.157  1.00  0.00     0.168 C 
ATOM     33  CB  ALA A   4      20.664   8.006  -9.299  1.00  0.00     0.041 C 
BRANCH  32  34
ATOM     34  C   ALA A   4      22.710   9.198  -8.533  1.00  0.00     0.242 C 
ATOM     35  N   ARG A   5      23.817   8.706  -7.792  1.00  0.00    -0.343 N 
ATOM     36  O   ALA A   4      22.876  10.027  -9.469  1.00  0.00    -0.273 OA
ATOM     37  H   UNL     1      23.661   7.983  -7.051  1.00  0.00     0.164 HD
BRANCH  35  38
ATOM     38  CA  ARG A   5      25.181   9.116  -8.073  1.00  0.00     0.171 C 
BRANCH  38  39
ATOM     39  C   ARG A   5      25.902   7.967  -8.686  1.00  0.00     0.243 C 
ATOM     40  N   ASN A   6      25.917   7.865 -10.103  1.00  0.00    -0.341 N 
ATOM     41  O   ARG A   5      26.450   7.086  -7.970  1.00  0.00    -0.273 OA
ATOM     42  H   UNL     1      25.499   8.652 -10.651  1.00  0.00     0.164 HD
BRANCH  40  43
ATOM     43  CA  ASN A   6      26.542   6.750 -10.804  1.00  0.00     0.201 C 
BRANCH  43  44
ATOM     44  C   ASN A   6      27.997   6.640 -10.416  1.00  0.00     0.326 C 
ATOM     45  O   ASN A   6      28.793   7.580 -10.678  1.00  0.00    -0.250 OA
BRANCH  44  46
ATOM     46  OXT ASN A   6      28.476   5.504  -9.771  1.00  0.00    -0.480 OA
ATOM     47  H   UNL     1      27.866   4.728  -9.544  1.00  0.00     0.296 HD
ENDBRANCH  44  46
ENDBRANCH  43  44
BRANCH  43  48
ATOM     48  CB  ASN A   6      26.424   6.946 -12.323  1.00  0.00     0.136 C 
BRANCH  48  49
ATOM     49  CG  ASN A   6      25.010   7.181 -12.772  1.00  0.00     0.220 C 
ATOM     50  ND2 ASN A   6      24.754   8.089 -13.834  1.00  0.00    -0.370 N 
ATOM     51  OD1 ASN A   6      24.051   6.563 -12.238  1.00  0.00    -0.275 OA
ATOM     52  H   UNL     1      25.534   8.595 -14.310  1.00  0.00     0.159 HD
ATOM     53  H   UNL     1      23.775   8.259 -14.156  1.00  0.00     0.159 HD
ENDBRANCH  48  49
ENDBRANCH  43  48
ENDBRANCH  40  43
ENDBRANCH  38  39
BRANCH  38  54
ATOM     54  CB  ARG A   5      25.855   9.599  -6.793  1.00  0.00     0.037 C 
BRANCH  54  55
ATOM     55  CG  ARG A   5      25.158  10.854  -6.272  1.00  0.00     0.024 C 
BRANCH  55  56
ATOM     56  CD  ARG A   5      25.833  11.393  -5.020  1.00  0.00     0.116 C 
BRANCH  56  57
ATOM     57  NE  ARG A   5      25.383  10.688  -3.822  1.00  0.00    -0.357 N 
ATOM     58  CZ  ARG A   5      25.472  11.283  -2.527  1.00  0.00     0.185 C 
ATOM     59  NH2 ARG A   5      26.111  12.544  -2.333  1.00  0.00    -0.370 N 
ATOM     60  H   UNL     1      24.902   9.764  -3.912  1.00  0.00     0.163 HD
ATOM     61  H   UNL     1      26.710  12.998  -3.057  1.00  0.00     0.159 HD
ATOM     62  H   UNL     1      26.709  12.997  -3.057  1.00  0.00     0.159 HD
BRANCH  58  63
ATOM     63  NH1 ARG A   5      24.951  10.676  -1.510  1.00  0.00    -0.270 NA
ATOM     64  H   UNL     1      24.993  11.087  -0.551  1.00  0.00     0.191 HD
ENDBRANCH  58  63
ENDBRANCH  56  57
ENDBRANCH  55  56
ENDBRANCH  54  55
ENDBRANCH  38  54
ENDBRANCH  35  38
ENDBRANCH  32  34
ENDBRANCH   3  32
TORSDOF 28
