REMARK SMILES CC(C)C[C@H](NC(=O)[C@H](Cc1ccccc1)NC(=O)[C@@H](N)CO)C(=O)NCC(=O)N[C@@H](CCCNC(=N)N)C(=O)N[C@@H](CCCNC(=N)N)C(=O)O
REMARK SMILES IDX 28 1 29 2 30 3 27 5 26 6 24 7 25 8 5 10 6 11 7 12 8 13 9 15
REMARK SMILES IDX 17 16 18 17 19 18 20 20 21 21 22 24 23 25 10 27 11 28 12 29
REMARK SMILES IDX 16 30 13 31 15 32 14 33 4 34 2 35 1 36 3 37 31 38 39 39
REMARK SMILES IDX 41 40 40 41 42 43 50 44 51 45 52 46 43 48 44 49 45 50 46 51
REMARK SMILES IDX 47 52 49 53 48 57 32 59 33 60 34 61 35 62 36 63 38 64 37 68
REMARK H PARENT 30 4 26 9 6 14 17 19 21 22 21 23 23 26 41 42 52 47 46 54 49 55
REMARK H PARENT 49 56 48 58 35 65 38 66 38 67 37 69
ROOT
ATOM      1  C   GLY A   4      22.707   9.204  -8.539  1.00  0.00     0.240 C 
ATOM      2  O   GLY A   4      22.886  10.030  -9.474  1.00  0.00    -0.273 OA
ATOM      3  N   ARG A   5      23.806   8.709  -7.786  1.00  0.00    -0.343 N 
ATOM      4  H   UNL     1      23.638   7.992  -7.043  1.00  0.00     0.164 HD
ENDROOT
BRANCH   1   5
ATOM      5  CA  GLY A   4      21.333   8.757  -8.203  1.00  0.00     0.216 C 
BRANCH   5   6
ATOM      6  N   GLY A   4      20.561   9.914  -7.799  1.00  0.00    -0.345 N 
ATOM      7  C   LEU A   3      20.060  10.079  -6.484  1.00  0.00     0.243 C 
ATOM      8  O   LEU A   3      20.180   9.153  -5.634  1.00  0.00    -0.273 OA
ATOM      9  H   UNL     1      20.396  10.662  -8.511  1.00  0.00     0.164 HD
BRANCH   7  10
ATOM     10  CA  LEU A   3      19.344  11.349  -6.148  1.00  0.00     0.171 C 
BRANCH  10  11
ATOM     11  N   LEU A   3      18.085  11.016  -5.540  1.00  0.00    -0.343 N 
ATOM     12  C   PHE A   2      16.889  11.744  -5.775  1.00  0.00     0.243 C 
ATOM     13  O   PHE A   2      16.908  12.795  -6.473  1.00  0.00    -0.273 OA
ATOM     14  H   UNL     1      18.158  10.378  -4.724  1.00  0.00     0.164 HD
BRANCH  12  15
ATOM     15  CA  PHE A   2      15.653  11.313  -5.056  1.00  0.00     0.175 C 
BRANCH  15  16
ATOM     16  N   PHE A   2      14.456  11.740  -5.768  1.00  0.00    -0.343 N 
ATOM     17  C   SER A   1      13.916  13.050  -5.637  1.00  0.00     0.239 C 
ATOM     18  O   SER A   1      14.444  13.870  -4.836  1.00  0.00    -0.273 OA
ATOM     19  H   UNL     1      13.871  11.000  -6.214  1.00  0.00     0.164 HD
BRANCH  17  20
ATOM     20  CA  SER A   1      12.662  13.410  -6.388  1.00  0.00     0.167 C 
BRANCH  20  21
ATOM     21  N   SER A   1      12.472  14.862  -6.376  1.00  0.00    -0.318 NA
ATOM     22  H   UNL     1      13.202  15.317  -6.972  1.00  0.00     0.119 HD
ATOM     23  H   UNL     1      11.539  15.086  -6.793  1.00  0.00     0.119 HD
ENDBRANCH  20  21
BRANCH  20  24
ATOM     24  CB  SER A   1      12.687  12.878  -7.844  1.00  0.00     0.184 C 
BRANCH  24  25
ATOM     25  OG  SER A   1      11.437  13.048  -8.451  1.00  0.00    -0.394 OA
ATOM     26  H   UNL     1      10.831  12.369  -8.053  1.00  0.00     0.210 HD
ENDBRANCH  24  25
ENDBRANCH  20  24
ENDBRANCH  17  20
ENDBRANCH  15  16
BRANCH  15  27
ATOM     27  CB  PHE A   2      15.610   9.773  -4.879  1.00  0.00     0.070 C 
BRANCH  27  28
ATOM     28  CG  PHE A   2      14.435   9.292  -4.092  1.00  0.00    -0.045 A 
ATOM     29  CD1 PHE A   2      13.897  10.048  -3.033  1.00  0.00     0.004 A 
ATOM     30  CD2 PHE A   2      13.964   7.991  -4.310  1.00  0.00     0.004 A 
ATOM     31  CE1 PHE A   2      12.865   9.535  -2.258  1.00  0.00     0.000 A 
ATOM     32  CE2 PHE A   2      12.937   7.477  -3.520  1.00  0.00     0.000 A 
ATOM     33  CZ  PHE A   2      12.384   8.252  -2.500  1.00  0.00     0.000 A 
ENDBRANCH  27  28
ENDBRANCH  15  27
ENDBRANCH  12  15
ENDBRANCH  10  11
BRANCH  10  34
ATOM     34  CB  LEU A   3      20.165  12.249  -5.216  1.00  0.00     0.038 C 
BRANCH  34  35
ATOM     35  CG  LEU A   3      20.417  11.677  -3.792  1.00  0.00    -0.015 C 
ATOM     36  CD1 LEU A   3      21.819  12.065  -3.316  1.00  0.00     0.007 C 
ATOM     37  CD2 LEU A   3      19.368  12.167  -2.782  1.00  0.00     0.007 C 
ENDBRANCH  34  35
ENDBRANCH  10  34
ENDBRANCH   7  10
ENDBRANCH   5   6
ENDBRANCH   1   5
BRANCH   3  38
ATOM     38  CA  ARG A   5      25.174   9.113  -8.064  1.00  0.00     0.171 C 
BRANCH  38  39
ATOM     39  C   ARG A   5      25.895   7.965  -8.682  1.00  0.00     0.243 C 
ATOM     40  N   ARG A   6      25.929   7.883 -10.100  1.00  0.00    -0.341 N 
ATOM     41  O   ARG A   5      26.441   7.079  -7.971  1.00  0.00    -0.273 OA
ATOM     42  H   UNL     1      25.623   8.729 -10.631  1.00  0.00     0.164 HD
BRANCH  40  43
ATOM     43  CA  ARG A   6      26.537   6.769 -10.815  1.00  0.00     0.192 C 
BRANCH  43  44
ATOM     44  C   ARG A   6      27.987   6.642 -10.427  1.00  0.00     0.326 C 
ATOM     45  O   ARG A   6      28.796   7.575 -10.678  1.00  0.00    -0.250 OA
BRANCH  44  46
ATOM     46  OXT ARG A   6      28.435   5.487  -9.793  1.00  0.00    -0.480 OA
ATOM     47  H   UNL     1      29.406   5.386  -9.525  1.00  0.00     0.296 HD
ENDBRANCH  44  46
ENDBRANCH  43  44
BRANCH  43  48
ATOM     48  CB  ARG A   6      26.423   6.991 -12.334  1.00  0.00     0.039 C 
BRANCH  48  49
ATOM     49  CG  ARG A   6      24.965   7.128 -12.807  1.00  0.00     0.024 C 
BRANCH  49  50
ATOM     50  CD  ARG A   6      24.868   7.266 -14.331  1.00  0.00     0.116 C 
BRANCH  50  51
ATOM     51  NE  ARG A   6      25.268   6.024 -14.995  1.00  0.00    -0.357 N 
ATOM     52  CZ  ARG A   6      26.521   5.853 -15.675  1.00  0.00     0.185 C 
ATOM     53  NH2 ARG A   6      26.842   4.586 -16.255  1.00  0.00    -0.370 N 
ATOM     54  H   UNL     1      24.635   5.198 -14.904  1.00  0.00     0.163 HD
ATOM     55  H   UNL     1      27.748   4.438 -16.752  1.00  0.00     0.159 HD
ATOM     56  H   UNL     1      26.171   3.789 -16.188  1.00  0.00     0.159 HD
BRANCH  52  57
ATOM     57  NH1 ARG A   6      27.362   6.836 -15.761  1.00  0.00    -0.270 NA
ATOM     58  H   UNL     1      28.280   6.733 -16.248  1.00  0.00     0.191 HD
ENDBRANCH  52  57
ENDBRANCH  50  51
ENDBRANCH  49  50
ENDBRANCH  48  49
ENDBRANCH  43  48
ENDBRANCH  40  43
ENDBRANCH  38  39
BRANCH  38  59
ATOM     59  CB  ARG A   5      25.851   9.596  -6.787  1.00  0.00     0.037 C 
BRANCH  59  60
ATOM     60  CG  ARG A   5      25.162  10.858  -6.268  1.00  0.00     0.024 C 
BRANCH  60  61
ATOM     61  CD  ARG A   5      25.839  11.390  -5.013  1.00  0.00     0.116 C 
BRANCH  61  62
ATOM     62  NE  ARG A   5      25.377  10.686  -3.819  1.00  0.00    -0.357 N 
ATOM     63  CZ  ARG A   5      25.469  11.282  -2.526  1.00  0.00     0.185 C 
ATOM     64  NH2 ARG A   5      26.107  12.546  -2.351  1.00  0.00    -0.370 N 
ATOM     65  H   UNL     1      24.893   9.764  -3.910  1.00  0.00     0.163 HD
ATOM     66  H   UNL     1      26.697  12.982  -3.093  1.00  0.00     0.159 HD
ATOM     67  H   UNL     1      26.080  13.024  -1.423  1.00  0.00     0.159 HD
BRANCH  63  68
ATOM     68  NH1 ARG A   5      24.954  10.672  -1.506  1.00  0.00    -0.270 NA
ATOM     69  H   UNL     1      24.995  11.077  -0.544  1.00  0.00     0.191 HD
ENDBRANCH  63  68
ENDBRANCH  61  62
ENDBRANCH  60  61
ENDBRANCH  59  60
ENDBRANCH  38  59
ENDBRANCH   3  38
TORSDOF 29
