REMARK SMILES CC(C)C[C@H](NC(=O)[C@@H]1CCCN1C(=O)[C@H](CC(N)=O)NC(=O)[C@@H](N)CO)C(=O)N[C@@H](CCCNC(=N)N)C(=O)N[C@@H](CC(N)=O)C(=O)O
REMARK SMILES IDX 7 1 8 2 6 3 9 5 13 6 12 7 10 8 11 9 14 10 15 11 16 12 21 13
REMARK SMILES IDX 22 14 23 15 24 17 25 18 26 21 27 22 17 24 18 25 19 26 20 27
REMARK SMILES IDX 5 30 28 31 30 32 29 33 31 35 39 36 41 37 40 38 42 40 47 41
REMARK SMILES IDX 48 42 49 43 43 45 44 46 45 47 46 48 32 51 33 52 34 53 35 54
REMARK SMILES IDX 36 55 38 56 37 60 4 62 2 63 1 64 3 65
REMARK H PARENT 6 4 21 16 25 19 25 20 27 23 19 28 19 29 30 34 41 39 49 44
REMARK H PARENT 45 49 45 50 35 57 38 58 38 59 37 61
ROOT
ATOM      1  C   PRO A   3      -1.331   1.015   0.562  1.00  0.00     0.243 C 
ATOM      2  O   PRO A   3      -0.975   0.889   1.766  1.00  0.00    -0.273 OA
ATOM      3  N   LEU A   4      -0.777   0.162  -0.450  1.00  0.00    -0.343 N 
ATOM      4  H   UNL     1      -1.074   0.308  -1.443  1.00  0.00     0.164 HD
ENDROOT
BRANCH   1   5
ATOM      5  CA  PRO A   3      -2.389   2.025   0.195  1.00  0.00     0.174 C 
ATOM      6  N   PRO A   3      -3.675   1.614   0.737  1.00  0.00    -0.329 N 
ATOM      7  CD  PRO A   3      -4.144   2.495   1.795  1.00  0.00     0.120 C 
ATOM      8  CB  PRO A   3      -2.110   3.398   0.812  1.00  0.00     0.037 C 
ATOM      9  CG  PRO A   3      -3.023   3.498   2.031  1.00  0.00     0.024 C 
BRANCH   6  10
ATOM     10  C   ASN A   2      -4.446   0.526   0.190  1.00  0.00     0.246 C 
ATOM     11  O   ASN A   2      -3.977  -0.143  -0.772  1.00  0.00    -0.272 OA
BRANCH  10  12
ATOM     12  CA  ASN A   2      -5.845   0.234   0.687  1.00  0.00     0.180 C 
BRANCH  12  13
ATOM     13  N   ASN A   2      -6.785   1.108  -0.015  1.00  0.00    -0.342 N 
ATOM     14  C   SER A   1      -7.861   1.791   0.647  1.00  0.00     0.239 C 
ATOM     15  O   SER A   1      -8.009   1.685   1.895  1.00  0.00    -0.273 OA
ATOM     16  H   UNL     1      -6.729   1.150  -1.058  1.00  0.00     0.164 HD
BRANCH  14  17
ATOM     17  CA  SER A   1      -8.853   2.606  -0.142  1.00  0.00     0.167 C 
BRANCH  17  18
ATOM     18  N   SER A   1      -8.171   3.388  -1.174  1.00  0.00    -0.318 NA
ATOM     19  H   UNL     1      -8.877   4.000  -1.644  1.00  0.00     0.119 HD
ATOM     20  H   UNL     1      -7.500   4.037  -0.703  1.00  0.00     0.119 HD
ENDBRANCH  17  18
BRANCH  17  21
ATOM     21  CB  SER A   1      -9.922   1.696  -0.769  1.00  0.00     0.184 C 
BRANCH  21  22
ATOM     22  OG  SER A   1      -9.355   0.785  -1.674  1.00  0.00    -0.394 OA
ATOM     23  H   UNL     1      -9.221   1.271  -2.528  1.00  0.00     0.210 HD
ENDBRANCH  21  22
ENDBRANCH  17  21
ENDBRANCH  14  17
ENDBRANCH  12  13
BRANCH  12  24
ATOM     24  CB  ASN A   2      -6.260  -1.234   0.475  1.00  0.00     0.134 C 
BRANCH  24  25
ATOM     25  CG  ASN A   2      -5.383  -2.204   1.221  1.00  0.00     0.220 C 
ATOM     26  ND2 ASN A   2      -4.974  -3.425   0.603  1.00  0.00    -0.370 N 
ATOM     27  OD1 ASN A   2      -5.062  -1.976   2.419  1.00  0.00    -0.275 OA
ATOM     28  H   UNL     1      -5.246  -3.644  -0.382  1.00  0.00     0.159 HD
ATOM     29  H   UNL     1      -4.419  -4.127   1.142  1.00  0.00     0.159 HD
ENDBRANCH  24  25
ENDBRANCH  12  24
ENDBRANCH  10  12
ENDBRANCH   6  10
ENDBRANCH   1   5
BRANCH   3  30
ATOM     30  CA  LEU A   4       0.300  -0.797  -0.181  1.00  0.00     0.171 C 
BRANCH  30  31
ATOM     31  C   LEU A   4       1.628  -0.189  -0.538  1.00  0.00     0.243 C 
ATOM     32  N   ARG A   5       2.810  -0.587   0.175  1.00  0.00    -0.343 N 
ATOM     33  O   LEU A   4       1.704   0.633  -1.496  1.00  0.00    -0.273 OA
ATOM     34  H   UNL     1       2.726  -1.342   0.895  1.00  0.00     0.164 HD
BRANCH  32  35
ATOM     35  CA  ARG A   5       4.127   0.014  -0.054  1.00  0.00     0.171 C 
BRANCH  35  36
ATOM     36  C   ARG A   5       5.058  -1.036  -0.603  1.00  0.00     0.243 C 
ATOM     37  N   ASN A   6       5.492  -2.135   0.214  1.00  0.00    -0.341 N 
ATOM     38  O   ARG A   5       5.435  -0.953  -1.805  1.00  0.00    -0.273 OA
ATOM     39  H   UNL     1       5.051  -2.262   1.150  1.00  0.00     0.164 HD
BRANCH  37  40
ATOM     40  CA  ASN A   6       6.526  -3.076  -0.229  1.00  0.00     0.201 C 
BRANCH  40  41
ATOM     41  C   ASN A   6       6.499  -4.312   0.630  1.00  0.00     0.326 C 
ATOM     42  O   ASN A   6       6.786  -4.245   1.856  1.00  0.00    -0.250 OA
BRANCH  41  43
ATOM     43  OXT ASN A   6       6.142  -5.534   0.070  1.00  0.00    -0.480 OA
ATOM     44  H   UNL     1       6.113  -6.375   0.633  1.00  0.00     0.296 HD
ENDBRANCH  41  43
ENDBRANCH  40  41
BRANCH  40  45
ATOM     45  CB  ASN A   6       7.910  -2.399  -0.189  1.00  0.00     0.136 C 
BRANCH  45  46
ATOM     46  CG  ASN A   6       8.970  -3.279  -0.788  1.00  0.00     0.220 C 
ATOM     47  ND2 ASN A   6       9.111  -3.371  -2.206  1.00  0.00    -0.370 N 
ATOM     48  OD1 ASN A   6       9.716  -3.963  -0.038  1.00  0.00    -0.275 OA
ATOM     49  H   UNL     1       8.491  -2.818  -2.840  1.00  0.00     0.159 HD
ATOM     50  H   UNL     1       9.837  -3.993  -2.622  1.00  0.00     0.159 HD
ENDBRANCH  45  46
ENDBRANCH  40  45
ENDBRANCH  37  40
ENDBRANCH  35  36
BRANCH  35  51
ATOM     51  CB  ARG A   5       4.644   0.633   1.262  1.00  0.00     0.037 C 
BRANCH  51  52
ATOM     52  CG  ARG A   5       6.071   1.216   1.187  1.00  0.00     0.024 C 
BRANCH  52  53
ATOM     53  CD  ARG A   5       6.205   2.425   0.247  1.00  0.00     0.116 C 
BRANCH  53  54
ATOM     54  NE  ARG A   5       5.441   3.577   0.731  1.00  0.00    -0.357 N 
ATOM     55  CZ  ARG A   5       5.352   4.823   0.015  1.00  0.00     0.185 C 
ATOM     56  NH2 ARG A   5       4.589   5.895   0.567  1.00  0.00    -0.370 N 
ATOM     57  H   UNL     1       4.961   3.522   1.657  1.00  0.00     0.163 HD
ATOM     58  H   UNL     1       4.105   5.787   1.485  1.00  0.00     0.159 HD
ATOM     59  H   UNL     1       4.504   6.804   0.058  1.00  0.00     0.159 HD
BRANCH  55  60
ATOM     60  NH1 ARG A   5       5.948   4.997  -1.124  1.00  0.00    -0.270 NA
ATOM     61  H   UNL     1       6.524   4.265  -1.591  1.00  0.00     0.191 HD
ENDBRANCH  55  60
ENDBRANCH  53  54
ENDBRANCH  52  53
ENDBRANCH  51  52
ENDBRANCH  35  51
ENDBRANCH  32  35
ENDBRANCH  30  31
BRANCH  30  62
ATOM     62  CB  LEU A   4       0.079  -2.094  -0.984  1.00  0.00     0.038 C 
BRANCH  62  63
ATOM     63  CG  LEU A   4      -1.213  -2.850  -0.587  1.00  0.00    -0.015 C 
ATOM     64  CD1 LEU A   4      -1.092  -3.486   0.808  1.00  0.00     0.007 C 
ATOM     65  CD2 LEU A   4      -1.528  -3.932  -1.627  1.00  0.00     0.007 C 
ENDBRANCH  62  63
ENDBRANCH  30  62
ENDBRANCH   3  30
TORSDOF 26
