REMARK SMILES CC(C)C[C@H](NC(=O)[C@H](Cc1ccccc1)NC(=O)[C@@H](N)CO)C(=O)N[C@@H](CCCNC(=N)N)C(=O)N[C@@H](Cc1c[nH]cn1)C(=O)N[C@@H](CC(N)=O)C(=O)O
REMARK SMILES IDX 24 1 25 2 26 3 5 5 6 6 7 7 8 8 9 10 17 11 18 12 19 13 20 15
REMARK SMILES IDX 21 16 22 19 23 20 10 22 11 23 12 24 16 25 13 26 15 27 14 28
REMARK SMILES IDX 4 29 2 30 1 31 3 32 27 33 35 34 37 35 36 36 38 38 45 39
REMARK SMILES IDX 47 40 46 41 48 43 53 44 54 45 55 46 49 48 50 49 51 50 52 51
REMARK SMILES IDX 39 54 40 55 44 56 41 57 43 58 42 59 28 61 29 62 30 63 31 64
REMARK SMILES IDX 32 65 34 66 33 70
REMARK H PARENT 26 4 6 9 17 14 21 17 21 18 23 21 37 37 47 42 55 47 51 52 51 53
REMARK H PARENT 42 60 31 67 34 68 34 69 33 71
ROOT
ATOM      1  C   LEU A   3      20.050  10.088  -6.476  1.00  0.00     0.243 C 
ATOM      2  O   LEU A   3      20.162   9.163  -5.623  1.00  0.00    -0.273 OA
ATOM      3  N   ARG A   4      20.565   9.921  -7.785  1.00  0.00    -0.343 N 
ATOM      4  H   UNL     1      20.401  10.661  -8.506  1.00  0.00     0.164 HD
ENDROOT
BRANCH   1   5
ATOM      5  CA  LEU A   3      19.339  11.356  -6.146  1.00  0.00     0.171 C 
BRANCH   5   6
ATOM      6  N   LEU A   3      18.081  11.023  -5.537  1.00  0.00    -0.343 N 
ATOM      7  C   PHE A   2      16.885  11.746  -5.776  1.00  0.00     0.243 C 
ATOM      8  O   PHE A   2      16.903  12.797  -6.475  1.00  0.00    -0.273 OA
ATOM      9  H   UNL     1      18.153  10.392  -4.715  1.00  0.00     0.164 HD
BRANCH   7  10
ATOM     10  CA  PHE A   2      15.650  11.313  -5.058  1.00  0.00     0.175 C 
BRANCH  10  11
ATOM     11  N   PHE A   2      14.453  11.739  -5.768  1.00  0.00    -0.343 N 
ATOM     12  C   SER A   1      13.914  13.049  -5.636  1.00  0.00     0.239 C 
ATOM     13  O   SER A   1      14.449  13.868  -4.839  1.00  0.00    -0.273 OA
ATOM     14  H   UNL     1      13.867  10.999  -6.213  1.00  0.00     0.164 HD
BRANCH  12  15
ATOM     15  CA  SER A   1      12.654  13.411  -6.385  1.00  0.00     0.167 C 
BRANCH  15  16
ATOM     16  N   SER A   1      12.468  14.864  -6.382  1.00  0.00    -0.318 NA
ATOM     17  H   UNL     1      12.337  15.180  -5.393  1.00  0.00     0.119 HD
ATOM     18  H   UNL     1      11.565  15.088  -6.857  1.00  0.00     0.119 HD
ENDBRANCH  15  16
BRANCH  15  19
ATOM     19  CB  SER A   1      12.696  12.894  -7.842  1.00  0.00     0.184 C 
BRANCH  19  20
ATOM     20  OG  SER A   1      11.440  13.036  -8.447  1.00  0.00    -0.394 OA
ATOM     21  H   UNL     1      11.454  13.890  -8.953  1.00  0.00     0.210 HD
ENDBRANCH  19  20
ENDBRANCH  15  19
ENDBRANCH  12  15
ENDBRANCH  10  11
BRANCH  10  22
ATOM     22  CB  PHE A   2      15.609   9.773  -4.881  1.00  0.00     0.070 C 
BRANCH  22  23
ATOM     23  CG  PHE A   2      14.435   9.292  -4.092  1.00  0.00    -0.045 A 
ATOM     24  CD1 PHE A   2      13.898  10.048  -3.033  1.00  0.00     0.004 A 
ATOM     25  CD2 PHE A   2      13.964   7.991  -4.310  1.00  0.00     0.004 A 
ATOM     26  CE1 PHE A   2      12.866   9.535  -2.258  1.00  0.00     0.000 A 
ATOM     27  CE2 PHE A   2      12.937   7.476  -3.520  1.00  0.00     0.000 A 
ATOM     28  CZ  PHE A   2      12.384   8.251  -2.500  1.00  0.00     0.000 A 
ENDBRANCH  22  23
ENDBRANCH  10  22
ENDBRANCH   7  10
ENDBRANCH   5   6
BRANCH   5  29
ATOM     29  CB  LEU A   3      20.164  12.252  -5.213  1.00  0.00     0.038 C 
BRANCH  29  30
ATOM     30  CG  LEU A   3      20.404  11.679  -3.786  1.00  0.00    -0.015 C 
ATOM     31  CD1 LEU A   3      21.807  12.048  -3.308  1.00  0.00     0.007 C 
ATOM     32  CD2 LEU A   3      19.359  12.181  -2.781  1.00  0.00     0.007 C 
ENDBRANCH  29  30
ENDBRANCH   5  29
ENDBRANCH   1   5
BRANCH   3  33
ATOM     33  CA  ARG A   4      21.349   8.759  -8.148  1.00  0.00     0.171 C 
BRANCH  33  34
ATOM     34  C   ARG A   4      22.713   9.216  -8.525  1.00  0.00     0.243 C 
ATOM     35  N   HIS A   5      23.821   8.739  -7.774  1.00  0.00    -0.342 N 
ATOM     36  O   ARG A   4      22.877  10.027  -9.477  1.00  0.00    -0.273 OA
ATOM     37  H   UNL     1      23.666   8.059  -6.995  1.00  0.00     0.164 HD
BRANCH  35  38
ATOM     38  CA  HIS A   5      25.183   9.136  -8.071  1.00  0.00     0.177 C 
BRANCH  38  39
ATOM     39  C   HIS A   5      25.896   7.974  -8.681  1.00  0.00     0.243 C 
ATOM     40  N   ASN A   6      25.910   7.866 -10.099  1.00  0.00    -0.340 N 
ATOM     41  O   HIS A   5      26.443   7.094  -7.963  1.00  0.00    -0.273 OA
ATOM     42  H   UNL     1      25.485   8.647 -10.650  1.00  0.00     0.164 HD
BRANCH  40  43
ATOM     43  CA  ASN A   6      26.540   6.752 -10.800  1.00  0.00     0.201 C 
BRANCH  43  44
ATOM     44  C   ASN A   6      27.991   6.643 -10.412  1.00  0.00     0.326 C 
ATOM     45  O   ASN A   6      28.793   7.578 -10.677  1.00  0.00    -0.250 OA
BRANCH  44  46
ATOM     46  OXT ASN A   6      28.448   5.502  -9.760  1.00  0.00    -0.480 OA
ATOM     47  H   UNL     1      29.420   5.412  -9.491  1.00  0.00     0.296 HD
ENDBRANCH  44  46
ENDBRANCH  43  44
BRANCH  43  48
ATOM     48  CB  ASN A   6      26.424   6.947 -12.320  1.00  0.00     0.136 C 
BRANCH  48  49
ATOM     49  CG  ASN A   6      25.010   7.180 -12.772  1.00  0.00     0.220 C 
ATOM     50  ND2 ASN A   6      24.754   8.090 -13.833  1.00  0.00    -0.370 N 
ATOM     51  OD1 ASN A   6      24.053   6.557 -12.243  1.00  0.00    -0.275 OA
ATOM     52  H   UNL     1      23.776   8.257 -14.157  1.00  0.00     0.159 HD
ATOM     53  H   UNL     1      25.534   8.600 -14.304  1.00  0.00     0.159 HD
ENDBRANCH  48  49
ENDBRANCH  43  48
ENDBRANCH  40  43
ENDBRANCH  38  39
BRANCH  38  54
ATOM     54  CB  HIS A   5      25.867   9.641  -6.802  1.00  0.00     0.093 C 
BRANCH  54  55
ATOM     55  CG  HIS A   5      25.208  10.863  -6.216  1.00  0.00     0.061 A 
ATOM     56  ND1 HIS A   5      25.426  11.258  -4.945  1.00  0.00    -0.242 NA
ATOM     57  CD2 HIS A   5      24.537  11.866  -6.894  1.00  0.00     0.107 A 
ATOM     58  CE1 HIS A   5      24.857  12.478  -4.870  1.00  0.00     0.196 A 
ATOM     59  NE2 HIS A   5      24.306  12.867  -6.034  1.00  0.00    -0.351 N 
ATOM     60  H   UNL     1      23.824  13.772  -6.232  1.00  0.00     0.167 HD
ENDBRANCH  54  55
ENDBRANCH  38  54
ENDBRANCH  35  38
ENDBRANCH  33  34
BRANCH  33  61
ATOM     61  CB  ARG A   4      20.657   7.994  -9.278  1.00  0.00     0.037 C 
BRANCH  61  62
ATOM     62  CG  ARG A   4      21.453   6.776  -9.772  1.00  0.00     0.024 C 
BRANCH  62  63
ATOM     63  CD  ARG A   4      21.771   5.770  -8.656  1.00  0.00     0.116 C 
BRANCH  63  64
ATOM     64  NE  ARG A   4      22.355   4.548  -9.214  1.00  0.00    -0.357 N 
ATOM     65  CZ  ARG A   4      22.787   3.439  -8.406  1.00  0.00     0.185 C 
ATOM     66  NH2 ARG A   4      23.391   2.309  -9.034  1.00  0.00    -0.370 N 
ATOM     67  H   UNL     1      22.498   4.477 -10.247  1.00  0.00     0.163 HD
ATOM     68  H   UNL     1      23.711   1.493  -8.465  1.00  0.00     0.159 HD
ATOM     69  H   UNL     1      23.523   2.283 -10.069  1.00  0.00     0.159 HD
BRANCH  65  70
ATOM     70  NH1 ARG A   4      22.641   3.441  -7.117  1.00  0.00    -0.270 NA
ATOM     71  H   UNL     1      22.209   4.228  -6.586  1.00  0.00     0.191 HD
ENDBRANCH  65  70
ENDBRANCH  63  64
ENDBRANCH  62  63
ENDBRANCH  61  62
ENDBRANCH  33  61
ENDBRANCH   3  33
TORSDOF 28
