REMARK SMILES CC(C)C[C@H](NC(=O)[C@H](CCCNC(=N)N)NC(=O)[C@H](Cc1ccccc1)NC(=O)[C@@H](N)CO)C(=O)N[C@@H](CCCNC(=N)N)C(=O)NCC(=O)O
REMARK SMILES IDX 7 1 8 2 6 3 9 5 17 6 18 7 19 8 20 10 28 11 29 12 30 13 31 15
REMARK SMILES IDX 32 16 33 19 34 20 21 22 22 23 23 24 27 25 24 26 26 27 25 28
REMARK SMILES IDX 10 29 11 30 12 31 13 32 14 33 16 34 15 38 5 40 35 41 37 42
REMARK SMILES IDX 36 43 38 45 46 46 48 47 47 48 49 50 50 51 51 52 52 53 39 55
REMARK SMILES IDX 40 56 41 57 42 58 43 59 45 60 44 64 4 66 2 67 1 68 3 69
REMARK H PARENT 6 4 17 9 28 14 32 17 32 18 34 21 13 35 16 36 16 37 15 39 37 44
REMARK H PARENT 48 49 52 54 42 61 45 62 45 63 44 65
ROOT
ATOM      1  C   ARG A   3      20.037  10.083  -6.471  1.00  0.00     0.243 C 
ATOM      2  O   ARG A   3      20.153   9.165  -5.613  1.00  0.00    -0.273 OA
ATOM      3  N   LEU A   4      20.564   9.920  -7.777  1.00  0.00    -0.343 N 
ATOM      4  H   UNL     1      20.403  10.661  -8.497  1.00  0.00     0.164 HD
ENDROOT
BRANCH   1   5
ATOM      5  CA  ARG A   3      19.337  11.358  -6.142  1.00  0.00     0.171 C 
BRANCH   5   6
ATOM      6  N   ARG A   3      18.086  11.051  -5.499  1.00  0.00    -0.343 N 
ATOM      7  C   PHE A   2      16.884  11.751  -5.773  1.00  0.00     0.243 C 
ATOM      8  O   PHE A   2      16.900  12.793  -6.484  1.00  0.00    -0.273 OA
ATOM      9  H   UNL     1      18.160  10.510  -4.612  1.00  0.00     0.164 HD
BRANCH   7  10
ATOM     10  CA  PHE A   2      15.649  11.314  -5.060  1.00  0.00     0.175 C 
BRANCH  10  11
ATOM     11  N   PHE A   2      14.451  11.740  -5.769  1.00  0.00    -0.343 N 
ATOM     12  C   SER A   1      13.914  13.051  -5.636  1.00  0.00     0.239 C 
ATOM     13  O   SER A   1      14.449  13.870  -4.839  1.00  0.00    -0.273 OA
ATOM     14  H   UNL     1      13.858  11.001  -6.206  1.00  0.00     0.164 HD
BRANCH  12  15
ATOM     15  CA  SER A   1      12.654  13.411  -6.383  1.00  0.00     0.167 C 
BRANCH  15  16
ATOM     16  N   SER A   1      12.467  14.863  -6.382  1.00  0.00    -0.318 NA
ATOM     17  H   UNL     1      11.581  15.088  -6.891  1.00  0.00     0.119 HD
ATOM     18  H   UNL     1      12.304  15.175  -5.397  1.00  0.00     0.119 HD
ENDBRANCH  15  16
BRANCH  15  19
ATOM     19  CB  SER A   1      12.694  12.894  -7.842  1.00  0.00     0.184 C 
BRANCH  19  20
ATOM     20  OG  SER A   1      11.440  13.037  -8.449  1.00  0.00    -0.394 OA
ATOM     21  H   UNL     1      10.855  12.333  -8.065  1.00  0.00     0.210 HD
ENDBRANCH  19  20
ENDBRANCH  15  19
ENDBRANCH  12  15
ENDBRANCH  10  11
BRANCH  10  22
ATOM     22  CB  PHE A   2      15.611   9.774  -4.892  1.00  0.00     0.070 C 
BRANCH  22  23
ATOM     23  CG  PHE A   2      14.443   9.289  -4.090  1.00  0.00    -0.045 A 
ATOM     24  CD1 PHE A   2      13.903  10.046  -3.033  1.00  0.00     0.004 A 
ATOM     25  CD2 PHE A   2      13.968   7.989  -4.310  1.00  0.00     0.004 A 
ATOM     26  CE1 PHE A   2      12.869   9.535  -2.260  1.00  0.00     0.000 A 
ATOM     27  CE2 PHE A   2      12.939   7.477  -3.521  1.00  0.00     0.000 A 
ATOM     28  CZ  PHE A   2      12.386   8.252  -2.502  1.00  0.00     0.000 A 
ENDBRANCH  22  23
ENDBRANCH  10  22
ENDBRANCH   7  10
ENDBRANCH   5   6
BRANCH   5  29
ATOM     29  CB  ARG A   3      20.195  12.252  -5.242  1.00  0.00     0.037 C 
BRANCH  29  30
ATOM     30  CG  ARG A   3      20.404  11.717  -3.809  1.00  0.00     0.024 C 
BRANCH  30  31
ATOM     31  CD  ARG A   3      21.801  12.063  -3.293  1.00  0.00     0.116 C 
BRANCH  31  32
ATOM     32  NE  ARG A   3      21.879  11.837  -1.849  1.00  0.00    -0.357 N 
ATOM     33  CZ  ARG A   3      21.816  10.536  -1.245  1.00  0.00     0.185 C 
ATOM     34  NH2 ARG A   3      21.819  10.418   0.179  1.00  0.00    -0.370 N 
ATOM     35  H   UNL     1      22.002  12.668  -1.228  1.00  0.00     0.163 HD
ATOM     36  H   UNL     1      21.855  11.271   0.780  1.00  0.00     0.159 HD
ATOM     37  H   UNL     1      21.786   9.481   0.640  1.00  0.00     0.159 HD
BRANCH  33  38
ATOM     38  NH1 ARG A   3      21.782   9.471  -1.983  1.00  0.00    -0.270 NA
ATOM     39  H   UNL     1      21.746   8.514  -1.567  1.00  0.00     0.191 HD
ENDBRANCH  33  38
ENDBRANCH  31  32
ENDBRANCH  30  31
ENDBRANCH  29  30
ENDBRANCH   5  29
ENDBRANCH   1   5
BRANCH   3  40
ATOM     40  CA  LEU A   4      21.350   8.759  -8.143  1.00  0.00     0.171 C 
BRANCH  40  41
ATOM     41  C   LEU A   4      22.713   9.217  -8.524  1.00  0.00     0.243 C 
ATOM     42  N   ARG A   5      23.824   8.720  -7.793  1.00  0.00    -0.343 N 
ATOM     43  O   LEU A   4      22.875  10.035  -9.470  1.00  0.00    -0.273 OA
ATOM     44  H   UNL     1      23.671   8.031  -7.021  1.00  0.00     0.164 HD
BRANCH  42  45
ATOM     45  CA  ARG A   5      25.187   9.120  -8.087  1.00  0.00     0.171 C 
BRANCH  45  46
ATOM     46  C   ARG A   5      25.898   7.961  -8.698  1.00  0.00     0.243 C 
ATOM     47  N   GLY A   6      25.892   7.823 -10.117  1.00  0.00    -0.343 N 
ATOM     48  O   ARG A   5      26.454   7.092  -7.972  1.00  0.00    -0.273 OA
ATOM     49  H   UNL     1      25.398   8.536 -10.701  1.00  0.00     0.164 HD
BRANCH  47  50
ATOM     50  CA  GLY A   6      26.551   6.716 -10.794  1.00  0.00     0.238 C 
BRANCH  50  51
ATOM     51  C   GLY A   6      28.000   6.644 -10.414  1.00  0.00     0.322 C 
ATOM     52  O   GLY A   6      28.781   7.588 -10.704  1.00  0.00    -0.250 OA
BRANCH  51  53
ATOM     53  OXT GLY A   6      28.483   5.528  -9.737  1.00  0.00    -0.480 OA
ATOM     54  H   UNL     1      29.458   5.464  -9.471  1.00  0.00     0.296 HD
ENDBRANCH  51  53
ENDBRANCH  50  51
ENDBRANCH  47  50
ENDBRANCH  45  46
BRANCH  45  55
ATOM     55  CB  ARG A   5      25.865   9.607  -6.808  1.00  0.00     0.037 C 
BRANCH  55  56
ATOM     56  CG  ARG A   5      25.163  10.857  -6.275  1.00  0.00     0.024 C 
BRANCH  56  57
ATOM     57  CD  ARG A   5      25.839  11.390  -5.018  1.00  0.00     0.116 C 
BRANCH  57  58
ATOM     58  NE  ARG A   5      25.381  10.683  -3.824  1.00  0.00    -0.357 N 
ATOM     59  CZ  ARG A   5      25.473  11.279  -2.529  1.00  0.00     0.185 C 
ATOM     60  NH2 ARG A   5      26.097  12.548  -2.354  1.00  0.00    -0.370 N 
ATOM     61  H   UNL     1      24.908   9.755  -3.921  1.00  0.00     0.163 HD
ATOM     62  H   UNL     1      26.075  13.012  -1.419  1.00  0.00     0.159 HD
ATOM     63  H   UNL     1      26.672  12.999  -3.099  1.00  0.00     0.159 HD
BRANCH  59  64
ATOM     64  NH1 ARG A   5      24.989  10.668  -1.496  1.00  0.00    -0.270 NA
ATOM     65  H   UNL     1      24.538   9.730  -1.575  1.00  0.00     0.191 HD
ENDBRANCH  59  64
ENDBRANCH  57  58
ENDBRANCH  56  57
ENDBRANCH  55  56
ENDBRANCH  45  55
ENDBRANCH  42  45
ENDBRANCH  40  41
BRANCH  40  66
ATOM     66  CB  LEU A   4      20.657   7.998  -9.274  1.00  0.00     0.038 C 
BRANCH  66  67
ATOM     67  CG  LEU A   4      21.449   6.769  -9.771  1.00  0.00    -0.015 C 
ATOM     68  CD1 LEU A   4      21.763   5.778  -8.640  1.00  0.00     0.007 C 
ATOM     69  CD2 LEU A   4      20.659   6.064 -10.876  1.00  0.00     0.007 C 
ENDBRANCH  66  67
ENDBRANCH  40  66
ENDBRANCH   3  40
TORSDOF 29
