REMARK SMILES CC(C)C[C@H](NC(=O)[C@@H](NC(=O)[C@@H](N)CO)[C@@H](C)O)C(=O)N[C@@H](C)C(=O)N[C@@H](CCCNC(=N)N)C(=O)N[C@@H](CC(N)=O)C(=O)O
REMARK SMILES IDX 20 1 21 2 22 3 5 5 6 6 7 7 8 8 9 10 10 11 11 12 12 13 13 15
REMARK SMILES IDX 14 16 15 19 16 20 17 22 18 23 19 24 4 26 2 27 1 28 3 29
REMARK SMILES IDX 23 30 24 31 25 32 27 33 26 34 28 36 36 37 38 38 37 39 39 41
REMARK SMILES IDX 44 42 45 43 46 44 40 46 41 47 42 48 43 49 29 52 30 53 31 54
REMARK SMILES IDX 32 55 33 56 35 57 34 61
REMARK H PARENT 22 4 6 9 10 14 14 17 14 18 16 21 19 25 27 35 38 40 46 45 42 50
REMARK H PARENT 42 51 32 58 35 59 35 60 34 62
ROOT
ATOM      1  C   LEU A   3       1.540   0.167   0.494  1.00  0.00     0.243 C 
ATOM      2  O   LEU A   3       1.336  -1.076   0.579  1.00  0.00    -0.273 OA
ATOM      3  N   ALA A   4       0.474   1.089   0.758  1.00  0.00    -0.343 N 
ATOM      4  H   UNL     1       0.619   2.098   0.529  1.00  0.00     0.164 HD
ENDROOT
BRANCH   1   5
ATOM      5  CA  LEU A   3       2.896   0.686   0.077  1.00  0.00     0.171 C 
BRANCH   5   6
ATOM      6  N   LEU A   3       3.980  -0.042   0.749  1.00  0.00    -0.342 N 
ATOM      7  C   THR A   2       5.318   0.471   0.832  1.00  0.00     0.245 C 
ATOM      8  O   THR A   2       5.581   1.627   0.401  1.00  0.00    -0.273 OA
ATOM      9  H   UNL     1       3.773  -0.938   1.246  1.00  0.00     0.164 HD
BRANCH   7  10
ATOM     10  CA  THR A   2       6.395  -0.352   1.492  1.00  0.00     0.200 C 
BRANCH  10  11
ATOM     11  N   THR A   2       7.724   0.107   1.066  1.00  0.00    -0.341 N 
ATOM     12  C   SER A   1       8.318  -0.305  -0.173  1.00  0.00     0.240 C 
ATOM     13  O   SER A   1       7.719  -1.126  -0.923  1.00  0.00    -0.273 OA
ATOM     14  H   UNL     1       8.200   0.862   1.611  1.00  0.00     0.164 HD
BRANCH  12  15
ATOM     15  CA  SER A   1       9.635   0.297  -0.611  1.00  0.00     0.167 C 
BRANCH  15  16
ATOM     16  N   SER A   1      10.476  -0.694  -1.292  1.00  0.00    -0.318 NA
ATOM     17  H   UNL     1      10.622  -1.510  -0.653  1.00  0.00     0.119 HD
ATOM     18  H   UNL     1       9.987  -1.046  -2.147  1.00  0.00     0.119 HD
ENDBRANCH  15  16
BRANCH  15  19
ATOM     19  CB  SER A   1       9.402   1.503  -1.526  1.00  0.00     0.184 C 
BRANCH  19  20
ATOM     20  OG  SER A   1       8.696   2.501  -0.838  1.00  0.00    -0.394 OA
ATOM     21  H   UNL     1       8.584   3.251  -1.480  1.00  0.00     0.210 HD
ENDBRANCH  19  20
ENDBRANCH  15  19
ENDBRANCH  12  15
ENDBRANCH  10  11
BRANCH  10  22
ATOM     22  CB  THR A   2       6.254  -0.299   3.034  1.00  0.00     0.143 C 
ATOM     23  CG2 THR A   2       7.244  -1.249   3.711  1.00  0.00     0.041 C 
BRANCH  22  24
ATOM     24  OG1 THR A   2       6.471   1.003   3.514  1.00  0.00    -0.391 OA
ATOM     25  H   UNL     1       5.623   1.502   3.388  1.00  0.00     0.211 HD
ENDBRANCH  22  24
ENDBRANCH  10  22
ENDBRANCH   7  10
ENDBRANCH   5   6
BRANCH   5  26
ATOM     26  CB  LEU A   3       3.068   0.700  -1.463  1.00  0.00     0.038 C 
BRANCH  26  27
ATOM     27  CG  LEU A   3       2.878  -0.655  -2.197  1.00  0.00    -0.015 C 
ATOM     28  CD1 LEU A   3       3.967  -1.679  -1.844  1.00  0.00     0.007 C 
ATOM     29  CD2 LEU A   3       2.878  -0.416  -3.713  1.00  0.00     0.007 C 
ENDBRANCH  26  27
ENDBRANCH   5  26
ENDBRANCH   1   5
BRANCH   3  30
ATOM     30  CA  ALA A   4      -0.853   0.657   1.208  1.00  0.00     0.168 C 
ATOM     31  CB  ALA A   4      -1.393   1.635   2.253  1.00  0.00     0.041 C 
BRANCH  30  32
ATOM     32  C   ALA A   4      -1.802   0.576   0.044  1.00  0.00     0.242 C 
ATOM     33  N   ARG A   5      -2.879  -0.374   0.070  1.00  0.00    -0.343 N 
ATOM     34  O   ALA A   4      -1.694   1.387  -0.916  1.00  0.00    -0.273 OA
ATOM     35  H   UNL     1      -2.907  -1.063   0.859  1.00  0.00     0.164 HD
BRANCH  33  36
ATOM     36  CA  ARG A   5      -4.037  -0.252  -0.823  1.00  0.00     0.171 C 
BRANCH  36  37
ATOM     37  C   ARG A   5      -4.950   0.851  -0.353  1.00  0.00     0.243 C 
ATOM     38  N   ASN A   6      -5.770   1.553  -1.298  1.00  0.00    -0.341 N 
ATOM     39  O   ARG A   5      -5.028   1.117   0.878  1.00  0.00    -0.273 OA
ATOM     40  H   UNL     1      -5.742   1.253  -2.300  1.00  0.00     0.164 HD
BRANCH  38  41
ATOM     41  CA  ASN A   6      -6.814   2.489  -0.882  1.00  0.00     0.201 C 
BRANCH  41  42
ATOM     42  C   ASN A   6      -8.104   1.742  -0.690  1.00  0.00     0.326 C 
ATOM     43  O   ASN A   6      -8.606   1.081  -1.639  1.00  0.00    -0.250 OA
BRANCH  42  44
ATOM     44  OXT ASN A   6      -8.738   1.765   0.549  1.00  0.00    -0.480 OA
ATOM     45  H   UNL     1      -9.605   1.261   0.700  1.00  0.00     0.296 HD
ENDBRANCH  42  44
ENDBRANCH  41  42
BRANCH  41  46
ATOM     46  CB  ASN A   6      -6.958   3.611  -1.925  1.00  0.00     0.136 C 
BRANCH  46  47
ATOM     47  CG  ASN A   6      -7.918   4.669  -1.465  1.00  0.00     0.220 C 
ATOM     48  ND2 ASN A   6      -7.492   5.685  -0.558  1.00  0.00    -0.370 N 
ATOM     49  OD1 ASN A   6      -9.119   4.632  -1.846  1.00  0.00    -0.275 OA
ATOM     50  H   UNL     1      -8.160   6.421  -0.239  1.00  0.00     0.159 HD
ATOM     51  H   UNL     1      -6.509   5.706  -0.209  1.00  0.00     0.159 HD
ENDBRANCH  46  47
ENDBRANCH  41  46
ENDBRANCH  38  41
ENDBRANCH  36  37
BRANCH  36  52
ATOM     52  CB  ARG A   5      -4.792  -1.594  -0.967  1.00  0.00     0.037 C 
BRANCH  52  53
ATOM     53  CG  ARG A   5      -5.570  -2.027   0.291  1.00  0.00     0.024 C 
BRANCH  53  54
ATOM     54  CD  ARG A   5      -6.241  -3.389   0.080  1.00  0.00     0.116 C 
BRANCH  54  55
ATOM     55  NE  ARG A   5      -6.962  -3.806   1.284  1.00  0.00    -0.357 N 
ATOM     56  CZ  ARG A   5      -7.653  -5.063   1.395  1.00  0.00     0.185 C 
ATOM     57  NH2 ARG A   5      -8.255  -5.424   2.639  1.00  0.00    -0.370 N 
ATOM     58  H   UNL     1      -6.961  -3.180   2.121  1.00  0.00     0.163 HD
ATOM     59  H   UNL     1      -8.190  -4.786   3.465  1.00  0.00     0.159 HD
ATOM     60  H   UNL     1      -8.756  -6.334   2.742  1.00  0.00     0.159 HD
BRANCH  56  61
ATOM     61  NH1 ARG A   5      -7.741  -5.881   0.391  1.00  0.00    -0.270 NA
ATOM     62  H   UNL     1      -7.329  -5.691  -0.549  1.00  0.00     0.191 HD
ENDBRANCH  56  61
ENDBRANCH  54  55
ENDBRANCH  53  54
ENDBRANCH  52  53
ENDBRANCH  36  52
ENDBRANCH  33  36
ENDBRANCH  30  32
ENDBRANCH   3  30
TORSDOF 26
