REMARK SMILES N=C(N)NCCC[C@H](NC(=O)[C@H](CC(=O)O)NC(=O)CNC(=O)[C@H](Cc1ccccc1)NC(=O)[C@@H](N)CO)C(=O)N[C@@H](CC(N)=O)C(=O)O
REMARK SMILES IDX 18 1 19 2 17 3 20 5 21 6 22 7 23 8 24 10 32 11 33 12 34 13
REMARK SMILES IDX 35 15 36 16 37 19 38 20 25 22 26 23 27 24 31 25 28 26 30 27
REMARK SMILES IDX 29 28 12 29 10 30 9 31 11 32 8 34 39 35 41 36 40 37 42 39
REMARK SMILES IDX 47 40 48 41 49 42 43 44 44 45 45 46 46 47 7 50 6 51 5 52
REMARK SMILES IDX 4 53 2 54 3 55 1 59 13 61 14 62 15 63 16 64
REMARK H PARENT 17 4 21 9 32 14 36 17 36 18 38 21 9 33 41 38 49 43 45 48 45 49
REMARK H PARENT 4 56 3 57 3 58 1 60 16 65
ROOT
ATOM      1  C   GLY A   3      20.044  10.093  -6.469  1.00  0.00     0.240 C 
ATOM      2  O   GLY A   3      20.178   9.200  -5.588  1.00  0.00    -0.273 OA
ATOM      3  N   ASP A   4      20.554   9.904  -7.780  1.00  0.00    -0.342 N 
ATOM      4  H   UNL     1      20.384  10.637  -8.507  1.00  0.00     0.164 HD
ENDROOT
BRANCH   1   5
ATOM      5  CA  GLY A   3      19.354  11.372  -6.157  1.00  0.00     0.216 C 
BRANCH   5   6
ATOM      6  N   GLY A   3      18.115  11.081  -5.479  1.00  0.00    -0.345 N 
ATOM      7  C   PHE A   2      16.899  11.756  -5.772  1.00  0.00     0.243 C 
ATOM      8  O   PHE A   2      16.904  12.791  -6.493  1.00  0.00    -0.273 OA
ATOM      9  H   UNL     1      18.217  10.608  -4.555  1.00  0.00     0.164 HD
BRANCH   7  10
ATOM     10  CA  PHE A   2      15.661  11.315  -5.060  1.00  0.00     0.175 C 
BRANCH  10  11
ATOM     11  N   PHE A   2      14.462  11.740  -5.770  1.00  0.00    -0.343 N 
ATOM     12  C   SER A   1      13.919  13.048  -5.633  1.00  0.00     0.239 C 
ATOM     13  O   SER A   1      14.448  13.865  -4.831  1.00  0.00    -0.273 OA
ATOM     14  H   UNL     1      13.881  11.000  -6.221  1.00  0.00     0.164 HD
BRANCH  12  15
ATOM     15  CA  SER A   1      12.662  13.410  -6.387  1.00  0.00     0.167 C 
BRANCH  15  16
ATOM     16  N   SER A   1      12.458  14.860  -6.397  1.00  0.00    -0.318 NA
ATOM     17  H   UNL     1      13.318  15.335  -6.758  1.00  0.00     0.119 HD
ATOM     18  H   UNL     1      12.292  15.190  -5.418  1.00  0.00     0.119 HD
ENDBRANCH  15  16
BRANCH  15  19
ATOM     19  CB  SER A   1      12.690  12.886  -7.840  1.00  0.00     0.184 C 
BRANCH  19  20
ATOM     20  OG  SER A   1      11.437  13.050  -8.443  1.00  0.00    -0.394 OA
ATOM     21  H   UNL     1      11.388  13.993  -8.751  1.00  0.00     0.210 HD
ENDBRANCH  19  20
ENDBRANCH  15  19
ENDBRANCH  12  15
ENDBRANCH  10  11
BRANCH  10  22
ATOM     22  CB  PHE A   2      15.629   9.778  -4.890  1.00  0.00     0.070 C 
BRANCH  22  23
ATOM     23  CG  PHE A   2      14.456   9.289  -4.088  1.00  0.00    -0.045 A 
ATOM     24  CD1 PHE A   2      13.910  10.047  -3.033  1.00  0.00     0.004 A 
ATOM     25  CD2 PHE A   2      13.977   7.991  -4.311  1.00  0.00     0.004 A 
ATOM     26  CE1 PHE A   2      12.872   9.537  -2.263  1.00  0.00     0.000 A 
ATOM     27  CE2 PHE A   2      12.944   7.479  -3.524  1.00  0.00     0.000 A 
ATOM     28  CZ  PHE A   2      12.389   8.254  -2.506  1.00  0.00     0.000 A 
ENDBRANCH  22  23
ENDBRANCH  10  22
ENDBRANCH   7  10
ENDBRANCH   5   6
ENDBRANCH   1   5
BRANCH   3  29
ATOM     29  CA  ASP A   4      21.341   8.742  -8.149  1.00  0.00     0.182 C 
BRANCH  29  30
ATOM     30  C   ASP A   4      22.709   9.205  -8.524  1.00  0.00     0.243 C 
ATOM     31  N   ARG A   5      23.818   8.708  -7.789  1.00  0.00    -0.343 N 
ATOM     32  O   ASP A   4      22.873  10.030  -9.464  1.00  0.00    -0.273 OA
ATOM     33  H   UNL     1      23.664   7.984  -7.050  1.00  0.00     0.164 HD
BRANCH  31  34
ATOM     34  CA  ARG A   5      25.181   9.117  -8.072  1.00  0.00     0.171 C 
BRANCH  34  35
ATOM     35  C   ARG A   5      25.901   7.967  -8.686  1.00  0.00     0.243 C 
ATOM     36  N   ASN A   6      25.915   7.865 -10.103  1.00  0.00    -0.341 N 
ATOM     37  O   ARG A   5      26.449   7.086  -7.970  1.00  0.00    -0.273 OA
ATOM     38  H   UNL     1      25.492   8.649 -10.651  1.00  0.00     0.164 HD
BRANCH  36  39
ATOM     39  CA  ASN A   6      26.543   6.751 -10.804  1.00  0.00     0.201 C 
BRANCH  39  40
ATOM     40  C   ASN A   6      27.994   6.642 -10.416  1.00  0.00     0.326 C 
ATOM     41  O   ASN A   6      28.795   7.579 -10.677  1.00  0.00    -0.250 OA
BRANCH  40  42
ATOM     42  OXT ASN A   6      28.452   5.498  -9.770  1.00  0.00    -0.480 OA
ATOM     43  H   UNL     1      29.425   5.408  -9.501  1.00  0.00     0.296 HD
ENDBRANCH  40  42
ENDBRANCH  39  40
BRANCH  39  44
ATOM     44  CB  ASN A   6      26.426   6.947 -12.324  1.00  0.00     0.136 C 
BRANCH  44  45
ATOM     45  CG  ASN A   6      25.011   7.181 -12.773  1.00  0.00     0.220 C 
ATOM     46  ND2 ASN A   6      24.754   8.090 -13.834  1.00  0.00    -0.370 N 
ATOM     47  OD1 ASN A   6      24.055   6.560 -12.240  1.00  0.00    -0.275 OA
ATOM     48  H   UNL     1      23.775   8.258 -14.156  1.00  0.00     0.159 HD
ATOM     49  H   UNL     1      25.533   8.599 -14.308  1.00  0.00     0.159 HD
ENDBRANCH  44  45
ENDBRANCH  39  44
ENDBRANCH  36  39
ENDBRANCH  34  35
BRANCH  34  50
ATOM     50  CB  ARG A   5      25.858   9.601  -6.794  1.00  0.00     0.037 C 
BRANCH  50  51
ATOM     51  CG  ARG A   5      25.166  10.859  -6.272  1.00  0.00     0.024 C 
BRANCH  51  52
ATOM     52  CD  ARG A   5      25.841  11.390  -5.016  1.00  0.00     0.116 C 
BRANCH  52  53
ATOM     53  NE  ARG A   5      25.378  10.684  -3.823  1.00  0.00    -0.357 N 
ATOM     54  CZ  ARG A   5      25.469  11.279  -2.527  1.00  0.00     0.185 C 
ATOM     55  NH2 ARG A   5      26.106  12.541  -2.350  1.00  0.00    -0.370 N 
ATOM     56  H   UNL     1      24.904   9.757  -3.921  1.00  0.00     0.163 HD
ATOM     57  H   UNL     1      26.084  13.006  -1.415  1.00  0.00     0.159 HD
ATOM     58  H   UNL     1      26.693  12.982  -3.091  1.00  0.00     0.159 HD
BRANCH  54  59
ATOM     59  NH1 ARG A   5      24.959  10.678  -1.500  1.00  0.00    -0.270 NA
ATOM     60  H   UNL     1      24.478   9.755  -1.583  1.00  0.00     0.191 HD
ENDBRANCH  54  59
ENDBRANCH  52  53
ENDBRANCH  51  52
ENDBRANCH  50  51
ENDBRANCH  34  50
ENDBRANCH  31  34
ENDBRANCH  29  30
BRANCH  29  61
ATOM     61  CB  ASP A   4      20.657   7.995  -9.296  1.00  0.00     0.157 C 
BRANCH  61  62
ATOM     62  CG  ASP A   4      21.430   6.788  -9.751  1.00  0.00     0.305 C 
ATOM     63  OD1 ASP A   4      21.407   6.455 -10.966  1.00  0.00    -0.252 OA
BRANCH  62  64
ATOM     64  OD2 ASP A   4      22.114   5.998  -8.831  1.00  0.00    -0.481 OA
ATOM     65  H   UNL     1      22.626   5.177  -9.130  1.00  0.00     0.296 HD
ENDBRANCH  62  64
ENDBRANCH  61  62
ENDBRANCH  29  61
ENDBRANCH   3  29
TORSDOF 27
