REMARK SMILES CC(C)C[C@H](NC(=O)CNC(=O)[C@H](Cc1ccccc1)NC(=O)[C@@H](N)CO)C(=O)N[C@@H](CCCNC(=N)N)C(=O)N[C@@H](C)C(=O)O
REMARK SMILES IDX 7 1 8 2 6 3 9 5 10 6 11 7 12 8 13 10 21 11 22 12 23 13 24 15
REMARK SMILES IDX 25 16 26 19 27 20 14 22 15 23 16 24 20 25 17 26 19 27 18 28
REMARK SMILES IDX 5 29 28 30 30 31 29 32 31 34 39 35 41 36 40 37 42 39 43 40
REMARK SMILES IDX 44 41 45 42 46 43 32 45 33 46 34 47 35 48 36 49 38 50 37 54
REMARK SMILES IDX 4 56 2 57 1 58 3 59
REMARK H PARENT 6 4 10 9 21 14 25 17 25 18 27 21 30 33 41 38 46 44 35 51 38 52
REMARK H PARENT 38 53 37 55
ROOT
ATOM      1  C   GLY A   3      20.042  10.101  -6.466  1.00  0.00     0.240 C 
ATOM      2  O   GLY A   3      20.173   9.205  -5.586  1.00  0.00    -0.273 OA
ATOM      3  N   LEU A   4      20.558   9.918  -7.775  1.00  0.00    -0.343 N 
ATOM      4  H   UNL     1      20.388  10.651  -8.503  1.00  0.00     0.164 HD
ENDROOT
BRANCH   1   5
ATOM      5  CA  GLY A   3      19.352  11.377  -6.153  1.00  0.00     0.216 C 
BRANCH   5   6
ATOM      6  N   GLY A   3      18.113  11.084  -5.477  1.00  0.00    -0.345 N 
ATOM      7  C   PHE A   2      16.897  11.757  -5.771  1.00  0.00     0.243 C 
ATOM      8  O   PHE A   2      16.902  12.792  -6.493  1.00  0.00    -0.273 OA
ATOM      9  H   UNL     1      18.215  10.611  -4.552  1.00  0.00     0.164 HD
BRANCH   7  10
ATOM     10  CA  PHE A   2      15.660  11.316  -5.060  1.00  0.00     0.175 C 
BRANCH  10  11
ATOM     11  N   PHE A   2      14.461  11.740  -5.770  1.00  0.00    -0.343 N 
ATOM     12  C   SER A   1      13.919  13.048  -5.633  1.00  0.00     0.239 C 
ATOM     13  O   SER A   1      14.448  13.865  -4.831  1.00  0.00    -0.273 OA
ATOM     14  H   UNL     1      13.880  11.000  -6.220  1.00  0.00     0.164 HD
BRANCH  12  15
ATOM     15  CA  SER A   1      12.662  13.411  -6.387  1.00  0.00     0.167 C 
BRANCH  15  16
ATOM     16  N   SER A   1      12.457  14.861  -6.397  1.00  0.00    -0.318 NA
ATOM     17  H   UNL     1      13.318  15.335  -6.758  1.00  0.00     0.119 HD
ATOM     18  H   UNL     1      12.292  15.191  -5.418  1.00  0.00     0.119 HD
ENDBRANCH  15  16
BRANCH  15  19
ATOM     19  CB  SER A   1      12.690  12.887  -7.840  1.00  0.00     0.184 C 
BRANCH  19  20
ATOM     20  OG  SER A   1      11.437  13.050  -8.444  1.00  0.00    -0.394 OA
ATOM     21  H   UNL     1      11.387  13.992  -8.751  1.00  0.00     0.210 HD
ENDBRANCH  19  20
ENDBRANCH  15  19
ENDBRANCH  12  15
ENDBRANCH  10  11
BRANCH  10  22
ATOM     22  CB  PHE A   2      15.628   9.778  -4.890  1.00  0.00     0.070 C 
BRANCH  22  23
ATOM     23  CG  PHE A   2      14.456   9.289  -4.088  1.00  0.00    -0.045 A 
ATOM     24  CD1 PHE A   2      13.910  10.047  -3.033  1.00  0.00     0.004 A 
ATOM     25  CD2 PHE A   2      13.977   7.991  -4.310  1.00  0.00     0.004 A 
ATOM     26  CE1 PHE A   2      12.872   9.537  -2.263  1.00  0.00     0.000 A 
ATOM     27  CE2 PHE A   2      12.944   7.479  -3.524  1.00  0.00     0.000 A 
ATOM     28  CZ  PHE A   2      12.389   8.254  -2.506  1.00  0.00     0.000 A 
ENDBRANCH  22  23
ENDBRANCH  10  22
ENDBRANCH   7  10
ENDBRANCH   5   6
ENDBRANCH   1   5
BRANCH   3  29
ATOM     29  CA  LEU A   4      21.346   8.758  -8.137  1.00  0.00     0.171 C 
BRANCH  29  30
ATOM     30  C   LEU A   4      22.711   9.216  -8.519  1.00  0.00     0.243 C 
ATOM     31  N   ARG A   5      23.822   8.720  -7.787  1.00  0.00    -0.343 N 
ATOM     32  O   LEU A   4      22.874  10.033  -9.467  1.00  0.00    -0.273 OA
ATOM     33  H   UNL     1      23.668   8.030  -7.016  1.00  0.00     0.164 HD
BRANCH  31  34
ATOM     34  CA  ARG A   5      25.185   9.120  -8.078  1.00  0.00     0.171 C 
BRANCH  34  35
ATOM     35  C   ARG A   5      25.897   7.963  -8.692  1.00  0.00     0.243 C 
ATOM     36  N   ALA A   6      25.884   7.840 -10.110  1.00  0.00    -0.341 N 
ATOM     37  O   ARG A   5      26.455   7.090  -7.974  1.00  0.00    -0.273 OA
ATOM     38  H   UNL     1      25.367   8.562 -10.663  1.00  0.00     0.164 HD
BRANCH  36  39
ATOM     39  CA  ALA A   6      26.544   6.745 -10.813  1.00  0.00     0.189 C 
ATOM     40  CB  ALA A   6      26.419   6.955 -12.323  1.00  0.00     0.043 C 
BRANCH  39  41
ATOM     41  C   ALA A   6      27.993   6.652 -10.418  1.00  0.00     0.325 C 
ATOM     42  O   ALA A   6      28.790   7.589 -10.686  1.00  0.00    -0.250 OA
BRANCH  41  43
ATOM     43  OXT ALA A   6      28.456   5.520  -9.752  1.00  0.00    -0.480 OA
ATOM     44  H   UNL     1      29.427   5.440  -9.477  1.00  0.00     0.296 HD
ENDBRANCH  41  43
ENDBRANCH  39  41
ENDBRANCH  36  39
ENDBRANCH  34  35
BRANCH  34  45
ATOM     45  CB  ARG A   5      25.865   9.604  -6.801  1.00  0.00     0.037 C 
BRANCH  45  46
ATOM     46  CG  ARG A   5      25.167  10.857  -6.272  1.00  0.00     0.024 C 
BRANCH  46  47
ATOM     47  CD  ARG A   5      25.843  11.388  -5.015  1.00  0.00     0.116 C 
BRANCH  47  48
ATOM     48  NE  ARG A   5      25.378  10.686  -3.821  1.00  0.00    -0.357 N 
ATOM     49  CZ  ARG A   5      25.470  11.281  -2.527  1.00  0.00     0.185 C 
ATOM     50  NH2 ARG A   5      26.109  12.546  -2.352  1.00  0.00    -0.370 N 
ATOM     51  H   UNL     1      24.900   9.760  -3.912  1.00  0.00     0.163 HD
ATOM     52  H   UNL     1      26.084  13.022  -1.423  1.00  0.00     0.159 HD
ATOM     53  H   UNL     1      26.699  12.981  -3.093  1.00  0.00     0.159 HD
BRANCH  49  54
ATOM     54  NH1 ARG A   5      24.956  10.671  -1.507  1.00  0.00    -0.270 NA
ATOM     55  H   UNL     1      24.999  11.075  -0.545  1.00  0.00     0.191 HD
ENDBRANCH  49  54
ENDBRANCH  47  48
ENDBRANCH  46  47
ENDBRANCH  45  46
ENDBRANCH  34  45
ENDBRANCH  31  34
ENDBRANCH  29  30
BRANCH  29  56
ATOM     56  CB  LEU A   4      20.656   7.997  -9.272  1.00  0.00     0.038 C 
BRANCH  56  57
ATOM     57  CG  LEU A   4      21.450   6.769  -9.770  1.00  0.00    -0.015 C 
ATOM     58  CD1 LEU A   4      21.764   5.778  -8.639  1.00  0.00     0.007 C 
ATOM     59  CD2 LEU A   4      20.660   6.065 -10.876  1.00  0.00     0.007 C 
ENDBRANCH  56  57
ENDBRANCH  29  56
ENDBRANCH   3  29
TORSDOF 24
