REMARK SMILES CC(C)C[C@H](NC(=O)[C@H](Cc1ccccc1)NC(=O)[C@@H](N)CO)C(=O)N[C@@H](CC(N)=O)C(=O)N[C@@H](CCCNC(=N)N)C(=O)N[C@@H](Cc1c[nH]cn1)C(=O)O
REMARK SMILES IDX 24 1 25 2 26 3 5 5 6 6 7 7 8 8 9 10 17 11 18 12 19 13 20 15
REMARK SMILES IDX 21 16 22 19 23 20 10 22 11 23 12 24 16 25 13 26 15 27 14 28
REMARK SMILES IDX 4 29 2 30 1 31 3 32 27 33 32 34 34 35 33 36 35 38 43 39
REMARK SMILES IDX 45 40 44 41 46 43 53 44 54 45 55 46 47 48 48 49 52 50 49 51
REMARK SMILES IDX 51 52 50 53 36 55 37 56 38 57 39 58 40 59 42 60 41 64 28 66
REMARK SMILES IDX 29 67 30 68 31 69
REMARK H PARENT 26 4 6 9 17 14 21 17 21 18 23 21 34 37 45 42 55 47 50 54 39 61
REMARK H PARENT 42 62 42 63 41 65 30 70 30 71
ROOT
ATOM      1  C   LEU A   3      -1.539   0.121  -0.193  1.00  0.00     0.243 C 
ATOM      2  O   LEU A   3      -1.353  -0.589   0.837  1.00  0.00    -0.273 OA
ATOM      3  N   ASN A   4      -0.843  -0.178  -1.411  1.00  0.00    -0.342 N 
ATOM      4  H   UNL     1      -0.888   0.519  -2.191  1.00  0.00     0.164 HD
ENDROOT
BRANCH   1   5
ATOM      5  CA  LEU A   3      -2.467   1.302  -0.123  1.00  0.00     0.171 C 
BRANCH   5   6
ATOM      6  N   LEU A   3      -3.719   0.901   0.521  1.00  0.00    -0.343 N 
ATOM      7  C   PHE A   2      -4.903   0.582  -0.220  1.00  0.00     0.243 C 
ATOM      8  O   PHE A   2      -4.892   0.607  -1.480  1.00  0.00    -0.273 OA
ATOM      9  H   UNL     1      -3.724   0.765   1.559  1.00  0.00     0.164 HD
BRANCH   7  10
ATOM     10  CA  PHE A   2      -6.162   0.184   0.504  1.00  0.00     0.175 C 
BRANCH  10  11
ATOM     11  N   PHE A   2      -7.298   0.936  -0.037  1.00  0.00    -0.343 N 
ATOM     12  C   SER A   1      -7.427   2.353   0.166  1.00  0.00     0.239 C 
ATOM     13  O   SER A   1      -6.623   2.962   0.924  1.00  0.00    -0.273 OA
ATOM     14  H   UNL     1      -8.006   0.446  -0.627  1.00  0.00     0.164 HD
BRANCH  12  15
ATOM     15  CA  SER A   1      -8.529   3.122  -0.515  1.00  0.00     0.167 C 
BRANCH  15  16
ATOM     16  N   SER A   1      -9.489   3.595   0.484  1.00  0.00    -0.318 NA
ATOM     17  H   UNL     1     -10.299   4.036  -0.011  1.00  0.00     0.119 HD
ATOM     18  H   UNL     1      -9.041   4.336   1.072  1.00  0.00     0.119 HD
ENDBRANCH  15  16
BRANCH  15  19
ATOM     19  CB  SER A   1      -7.960   4.294  -1.337  1.00  0.00     0.184 C 
BRANCH  19  20
ATOM     20  OG  SER A   1      -7.052   3.834  -2.302  1.00  0.00    -0.394 OA
ATOM     21  H   UNL     1      -7.592   3.413  -3.020  1.00  0.00     0.210 HD
ENDBRANCH  19  20
ENDBRANCH  15  19
ENDBRANCH  12  15
ENDBRANCH  10  11
BRANCH  10  22
ATOM     22  CB  PHE A   2      -6.402  -1.333   0.377  1.00  0.00     0.070 C 
BRANCH  22  23
ATOM     23  CG  PHE A   2      -5.309  -2.126   1.053  1.00  0.00    -0.045 A 
ATOM     24  CD1 PHE A   2      -5.345  -2.335   2.442  1.00  0.00     0.004 A 
ATOM     25  CD2 PHE A   2      -4.211  -2.601   0.313  1.00  0.00     0.004 A 
ATOM     26  CE1 PHE A   2      -4.306  -3.019   3.079  1.00  0.00     0.000 A 
ATOM     27  CE2 PHE A   2      -3.173  -3.285   0.953  1.00  0.00     0.000 A 
ATOM     28  CZ  PHE A   2      -3.221  -3.495   2.335  1.00  0.00     0.000 A 
ENDBRANCH  22  23
ENDBRANCH  10  22
ENDBRANCH   7  10
ENDBRANCH   5   6
BRANCH   5  29
ATOM     29  CB  LEU A   3      -1.802   2.455   0.652  1.00  0.00     0.038 C 
BRANCH  29  30
ATOM     30  CG  LEU A   3      -2.728   3.674   0.874  1.00  0.00    -0.015 C 
ATOM     31  CD1 LEU A   3      -3.185   4.304  -0.447  1.00  0.00     0.007 C 
ATOM     32  CD2 LEU A   3      -2.004   4.719   1.729  1.00  0.00     0.007 C 
ENDBRANCH  29  30
ENDBRANCH   5  29
ENDBRANCH   1   5
BRANCH   3  33
ATOM     33  CA  ASN A   4       0.071  -1.319  -1.533  1.00  0.00     0.180 C 
BRANCH  33  34
ATOM     34  C   ASN A   4       1.476  -0.921  -1.160  1.00  0.00     0.243 C 
ATOM     35  N   ARG A   5       2.416  -1.930  -0.765  1.00  0.00    -0.343 N 
ATOM     36  O   ASN A   4       1.834   0.286  -1.252  1.00  0.00    -0.273 OA
ATOM     37  H   UNL     1       2.065  -2.906  -0.630  1.00  0.00     0.164 HD
BRANCH  35  38
ATOM     38  CA  ARG A   5       3.826  -1.644  -0.475  1.00  0.00     0.171 C 
BRANCH  38  39
ATOM     39  C   ARG A   5       4.709  -2.555  -1.289  1.00  0.00     0.243 C 
ATOM     40  N   HIS A   6       5.931  -2.059  -1.854  1.00  0.00    -0.341 N 
ATOM     41  O   ARG A   5       4.405  -3.772  -1.414  1.00  0.00    -0.273 OA
ATOM     42  H   UNL     1       6.149  -1.043  -1.741  1.00  0.00     0.164 HD
BRANCH  40  43
ATOM     43  CA  HIS A   6       6.912  -2.946  -2.493  1.00  0.00     0.198 C 
BRANCH  43  44
ATOM     44  C   HIS A   6       7.626  -3.771  -1.455  1.00  0.00     0.326 C 
ATOM     45  O   HIS A   6       7.886  -3.284  -0.322  1.00  0.00    -0.250 OA
BRANCH  44  46
ATOM     46  OXT HIS A   6       8.038  -5.065  -1.762  1.00  0.00    -0.480 OA
ATOM     47  H   UNL     1       8.531  -5.635  -1.085  1.00  0.00     0.296 HD
ENDBRANCH  44  46
ENDBRANCH  43  44
BRANCH  43  48
ATOM     48  CB  HIS A   6       7.901  -2.154  -3.375  1.00  0.00     0.094 C 
BRANCH  48  49
ATOM     49  CG  HIS A   6       8.802  -1.236  -2.597  1.00  0.00     0.061 A 
ATOM     50  ND1 HIS A   6       8.500   0.044  -2.296  1.00  0.00    -0.242 NA
ATOM     51  CD2 HIS A   6      10.032  -1.561  -2.069  1.00  0.00     0.107 A 
ATOM     52  CE1 HIS A   6       9.565   0.472  -1.587  1.00  0.00     0.196 A 
ATOM     53  NE2 HIS A   6      10.507  -0.478  -1.436  1.00  0.00    -0.351 N 
ATOM     54  H   UNL     1      11.414  -0.388  -0.928  1.00  0.00     0.167 HD
ENDBRANCH  48  49
ENDBRANCH  43  48
ENDBRANCH  40  43
ENDBRANCH  38  39
BRANCH  38  55
ATOM     55  CB  ARG A   5       4.117  -1.848   1.021  1.00  0.00     0.037 C 
BRANCH  55  56
ATOM     56  CG  ARG A   5       3.345  -0.852   1.899  1.00  0.00     0.024 C 
BRANCH  56  57
ATOM     57  CD  ARG A   5       3.691  -1.049   3.379  1.00  0.00     0.116 C 
BRANCH  57  58
ATOM     58  NE  ARG A   5       2.940  -0.111   4.214  1.00  0.00    -0.357 N 
ATOM     59  CZ  ARG A   5       3.289   1.275   4.347  1.00  0.00     0.185 C 
ATOM     60  NH2 ARG A   5       2.576   2.095   5.274  1.00  0.00    -0.370 N 
ATOM     61  H   UNL     1       2.168  -0.492   4.805  1.00  0.00     0.163 HD
ATOM     62  H   UNL     1       1.838   1.682   5.882  1.00  0.00     0.159 HD
ATOM     63  H   UNL     1       2.808   3.107   5.387  1.00  0.00     0.159 HD
BRANCH  59  64
ATOM     64  NH1 ARG A   5       4.257   1.778   3.647  1.00  0.00    -0.270 NA
ATOM     65  H   UNL     1       4.540   2.780   3.734  1.00  0.00     0.191 HD
ENDBRANCH  59  64
ENDBRANCH  57  58
ENDBRANCH  56  57
ENDBRANCH  55  56
ENDBRANCH  38  55
ENDBRANCH  35  38
ENDBRANCH  33  34
BRANCH  33  66
ATOM     66  CB  ASN A   4       0.010  -1.934  -2.946  1.00  0.00     0.134 C 
BRANCH  66  67
ATOM     67  CG  ASN A   4       0.538  -1.019  -4.017  1.00  0.00     0.220 C 
ATOM     68  ND2 ASN A   4       1.934  -0.982  -4.317  1.00  0.00    -0.370 N 
ATOM     69  OD1 ASN A   4      -0.252  -0.269  -4.645  1.00  0.00    -0.275 OA
ATOM     70  H   UNL     1       2.297  -0.330  -5.044  1.00  0.00     0.159 HD
ATOM     71  H   UNL     1       2.602  -1.607  -3.818  1.00  0.00     0.159 HD
ENDBRANCH  66  67
ENDBRANCH  33  66
ENDBRANCH   3  33
TORSDOF 28
