REMARK SMILES CC(C)C[C@H](NC(=O)[C@H](CCC(N)=O)NC(=O)[C@H](Cc1ccccc1)NC(=O)[C@@H](N)CO)C(=O)N[C@@H](CCCNC(=N)N)C(=O)N[C@@H](Cc1c[nH]cn1)C(=O)O
REMARK SMILES IDX 7 1 8 2 6 3 9 5 15 6 16 7 17 8 18 10 26 11 27 12 28 13 29 15
REMARK SMILES IDX 30 16 31 19 32 20 19 22 20 23 21 24 25 25 22 26 24 27 23 28
REMARK SMILES IDX 10 29 11 30 12 31 13 32 14 33 5 36 33 37 35 38 34 39 36 41
REMARK SMILES IDX 44 42 46 43 45 44 47 46 54 47 55 48 56 49 48 51 49 52 53 53
REMARK SMILES IDX 50 54 52 55 51 56 37 58 38 59 39 60 40 61 41 62 43 63 42 67
REMARK SMILES IDX 4 69 2 70 1 71 3 72
REMARK H PARENT 6 4 15 9 26 14 30 17 30 18 32 21 13 34 13 35 35 40 46 45 56 50
REMARK H PARENT 51 57 40 64 43 65 43 66 42 68
ROOT
ATOM      1  C   GLN A   3      20.040  10.085  -6.470  1.00  0.00     0.243 C 
ATOM      2  O   GLN A   3      20.156   9.167  -5.611  1.00  0.00    -0.273 OA
ATOM      3  N   LEU A   4      20.565   9.920  -7.776  1.00  0.00    -0.343 N 
ATOM      4  H   UNL     1      20.404  10.662  -8.497  1.00  0.00     0.164 HD
ENDROOT
BRANCH   1   5
ATOM      5  CA  GLN A   3      19.337  11.359  -6.141  1.00  0.00     0.171 C 
BRANCH   5   6
ATOM      6  N   GLN A   3      18.086  11.049  -5.500  1.00  0.00    -0.342 N 
ATOM      7  C   PHE A   2      16.885  11.750  -5.773  1.00  0.00     0.243 C 
ATOM      8  O   PHE A   2      16.900  12.793  -6.483  1.00  0.00    -0.273 OA
ATOM      9  H   UNL     1      18.159  10.506  -4.615  1.00  0.00     0.164 HD
BRANCH   7  10
ATOM     10  CA  PHE A   2      15.650  11.313  -5.059  1.00  0.00     0.175 C 
BRANCH  10  11
ATOM     11  N   PHE A   2      14.454  11.740  -5.767  1.00  0.00    -0.343 N 
ATOM     12  C   SER A   1      13.917  13.050  -5.633  1.00  0.00     0.239 C 
ATOM     13  O   SER A   1      14.449  13.867  -4.832  1.00  0.00    -0.273 OA
ATOM     14  H   UNL     1      13.863  11.002  -6.209  1.00  0.00     0.164 HD
BRANCH  12  15
ATOM     15  CA  SER A   1      12.661  13.412  -6.386  1.00  0.00     0.167 C 
BRANCH  15  16
ATOM     16  N   SER A   1      12.454  14.861  -6.399  1.00  0.00    -0.318 NA
ATOM     17  H   UNL     1      13.315  15.338  -6.756  1.00  0.00     0.119 HD
ATOM     18  H   UNL     1      12.285  15.191  -5.420  1.00  0.00     0.119 HD
ENDBRANCH  15  16
BRANCH  15  19
ATOM     19  CB  SER A   1      12.689  12.887  -7.840  1.00  0.00     0.184 C 
BRANCH  19  20
ATOM     20  OG  SER A   1      11.438  13.053  -8.445  1.00  0.00    -0.394 OA
ATOM     21  H   UNL     1      10.839  12.360  -8.061  1.00  0.00     0.210 HD
ENDBRANCH  19  20
ENDBRANCH  15  19
ENDBRANCH  12  15
ENDBRANCH  10  11
BRANCH  10  22
ATOM     22  CB  PHE A   2      15.612   9.773  -4.892  1.00  0.00     0.070 C 
BRANCH  22  23
ATOM     23  CG  PHE A   2      14.443   9.289  -4.090  1.00  0.00    -0.045 A 
ATOM     24  CD1 PHE A   2      13.903  10.046  -3.033  1.00  0.00     0.004 A 
ATOM     25  CD2 PHE A   2      13.968   7.989  -4.310  1.00  0.00     0.004 A 
ATOM     26  CE1 PHE A   2      12.869   9.535  -2.260  1.00  0.00     0.000 A 
ATOM     27  CE2 PHE A   2      12.939   7.477  -3.521  1.00  0.00     0.000 A 
ATOM     28  CZ  PHE A   2      12.386   8.252  -2.502  1.00  0.00     0.000 A 
ENDBRANCH  22  23
ENDBRANCH  10  22
ENDBRANCH   7  10
ENDBRANCH   5   6
BRANCH   5  29
ATOM     29  CB  GLN A   3      20.189  12.256  -5.237  1.00  0.00     0.045 C 
BRANCH  29  30
ATOM     30  CG  GLN A   3      20.399  11.721  -3.804  1.00  0.00     0.102 C 
BRANCH  30  31
ATOM     31  CD  GLN A   3      21.773  12.052  -3.322  1.00  0.00     0.217 C 
ATOM     32  NE2 GLN A   3      22.131  13.395  -2.997  1.00  0.00    -0.370 N 
ATOM     33  OE1 GLN A   3      22.625  11.134  -3.223  1.00  0.00    -0.275 OA
ATOM     34  H   UNL     1      23.099  13.618  -2.674  1.00  0.00     0.159 HD
ATOM     35  H   UNL     1      21.433  14.166  -3.083  1.00  0.00     0.159 HD
ENDBRANCH  30  31
ENDBRANCH  29  30
ENDBRANCH   5  29
ENDBRANCH   1   5
BRANCH   3  36
ATOM     36  CA  LEU A   4      21.349   8.759  -8.142  1.00  0.00     0.171 C 
BRANCH  36  37
ATOM     37  C   LEU A   4      22.714   9.215  -8.522  1.00  0.00     0.243 C 
ATOM     38  N   ARG A   5      23.823   8.721  -7.784  1.00  0.00    -0.343 N 
ATOM     39  O   LEU A   4      22.879  10.031  -9.469  1.00  0.00    -0.273 OA
ATOM     40  H   UNL     1      23.666   8.033  -7.013  1.00  0.00     0.164 HD
BRANCH  38  41
ATOM     41  CA  ARG A   5      25.186   9.121  -8.071  1.00  0.00     0.171 C 
BRANCH  41  42
ATOM     42  C   ARG A   5      25.899   7.967  -8.686  1.00  0.00     0.243 C 
ATOM     43  N   HIS A   6      25.904   7.865 -10.103  1.00  0.00    -0.341 N 
ATOM     44  O   ARG A   5      26.449   7.085  -7.973  1.00  0.00    -0.273 OA
ATOM     45  H   UNL     1      25.479   8.653 -10.643  1.00  0.00     0.164 HD
BRANCH  43  46
ATOM     46  CA  HIS A   6      26.533   6.761 -10.820  1.00  0.00     0.198 C 
BRANCH  46  47
ATOM     47  C   HIS A   6      27.983   6.644 -10.426  1.00  0.00     0.326 C 
ATOM     48  O   HIS A   6      28.790   7.578 -10.680  1.00  0.00    -0.250 OA
BRANCH  47  49
ATOM     49  OXT HIS A   6      28.433   5.496  -9.783  1.00  0.00    -0.480 OA
ATOM     50  H   UNL     1      29.404   5.400  -9.510  1.00  0.00     0.296 HD
ENDBRANCH  47  49
ENDBRANCH  46  47
BRANCH  46  51
ATOM     51  CB  HIS A   6      26.419   6.987 -12.337  1.00  0.00     0.094 C 
BRANCH  51  52
ATOM     52  CG  HIS A   6      24.992   7.145 -12.782  1.00  0.00     0.061 A 
ATOM     53  ND1 HIS A   6      24.411   8.328 -13.066  1.00  0.00    -0.242 NA
ATOM     54  CD2 HIS A   6      24.085   6.124 -12.956  1.00  0.00     0.107 A 
ATOM     55  CE1 HIS A   6      23.151   7.994 -13.416  1.00  0.00     0.196 A 
ATOM     56  NE2 HIS A   6      22.929   6.667 -13.364  1.00  0.00    -0.351 N 
ATOM     57  H   UNL     1      22.044   6.166 -13.598  1.00  0.00     0.167 HD
ENDBRANCH  51  52
ENDBRANCH  46  51
ENDBRANCH  43  46
ENDBRANCH  41  42
BRANCH  41  58
ATOM     58  CB  ARG A   5      25.864   9.605  -6.795  1.00  0.00     0.037 C 
BRANCH  58  59
ATOM     59  CG  ARG A   5      25.164  10.857  -6.266  1.00  0.00     0.024 C 
BRANCH  59  60
ATOM     60  CD  ARG A   5      25.843  11.394  -5.015  1.00  0.00     0.116 C 
BRANCH  60  61
ATOM     61  NE  ARG A   5      25.406  10.677  -3.820  1.00  0.00    -0.357 N 
ATOM     62  CZ  ARG A   5      25.487  11.276  -2.524  1.00  0.00     0.185 C 
ATOM     63  NH2 ARG A   5      26.106  12.548  -2.350  1.00  0.00    -0.370 N 
ATOM     64  H   UNL     1      24.966   9.733  -3.914  1.00  0.00     0.163 HD
ATOM     65  H   UNL     1      26.069  13.019  -1.419  1.00  0.00     0.159 HD
ATOM     66  H   UNL     1      26.689  12.993  -3.091  1.00  0.00     0.159 HD
BRANCH  62  67
ATOM     67  NH1 ARG A   5      24.980  10.674  -1.496  1.00  0.00    -0.270 NA
ATOM     68  H   UNL     1      24.512   9.744  -1.576  1.00  0.00     0.191 HD
ENDBRANCH  62  67
ENDBRANCH  60  61
ENDBRANCH  59  60
ENDBRANCH  58  59
ENDBRANCH  41  58
ENDBRANCH  38  41
ENDBRANCH  36  37
BRANCH  36  69
ATOM     69  CB  LEU A   4      20.658   7.999  -9.276  1.00  0.00     0.038 C 
BRANCH  69  70
ATOM     70  CG  LEU A   4      21.449   6.770  -9.773  1.00  0.00    -0.015 C 
ATOM     71  CD1 LEU A   4      21.767   5.780  -8.642  1.00  0.00     0.007 C 
ATOM     72  CD2 LEU A   4      20.653   6.063 -10.872  1.00  0.00     0.007 C 
ENDBRANCH  69  70
ENDBRANCH  36  69
ENDBRANCH   3  36
TORSDOF 29
