REMARK SMILES CC(C)C[C@H](NC(=O)[C@H](Cc1c[nH]cn1)NC(=O)[C@@H](N)CO)C(=O)N[C@@H](C)C(=O)N[C@@H](CCCNC(=N)N)C(=O)N[C@@H](CC(N)=O)C(=O)O
REMARK SMILES IDX 23 1 24 2 25 3 5 5 6 6 7 7 8 8 9 10 16 11 17 12 18 13 19 15
REMARK SMILES IDX 20 16 21 19 22 20 10 22 11 23 15 24 12 25 14 26 13 27 4 29
REMARK SMILES IDX 2 30 1 31 3 32 26 33 27 34 28 35 30 36 29 37 31 39 39 40
REMARK SMILES IDX 41 41 40 42 42 44 47 45 48 46 49 47 43 49 44 50 45 51 46 52
REMARK SMILES IDX 32 55 33 56 34 57 35 58 36 59 38 60 37 64
REMARK H PARENT 25 4 6 9 16 14 20 17 20 18 22 21 13 28 30 38 41 43 49 48 45 53
REMARK H PARENT 45 54 35 61 38 62 38 63 37 65
ROOT
ATOM      1  C   LEU A   3      20.047  10.079  -6.474  1.00  0.00     0.243 C 
ATOM      2  O   LEU A   3      20.165   9.155  -5.622  1.00  0.00    -0.273 OA
ATOM      3  N   ALA A   4      20.563   9.913  -7.783  1.00  0.00    -0.343 N 
ATOM      4  H   UNL     1      20.402  10.658  -8.500  1.00  0.00     0.164 HD
ENDROOT
BRANCH   1   5
ATOM      5  CA  LEU A   3      19.328  11.346  -6.139  1.00  0.00     0.171 C 
BRANCH   5   6
ATOM      6  N   LEU A   3      18.073  11.010  -5.519  1.00  0.00    -0.342 N 
ATOM      7  C   HIS A   2      16.874  11.737  -5.742  1.00  0.00     0.243 C 
ATOM      8  O   HIS A   2      16.890  12.786  -6.446  1.00  0.00    -0.273 OA
ATOM      9  H   UNL     1      18.141  10.365  -4.707  1.00  0.00     0.164 HD
BRANCH   7  10
ATOM     10  CA  HIS A   2      15.624  11.283  -5.036  1.00  0.00     0.177 C 
BRANCH  10  11
ATOM     11  N   HIS A   2      14.443  11.728  -5.760  1.00  0.00    -0.342 N 
ATOM     12  C   SER A   1      13.917  13.044  -5.632  1.00  0.00     0.239 C 
ATOM     13  O   SER A   1      14.452  13.860  -4.832  1.00  0.00    -0.273 OA
ATOM     14  H   UNL     1      13.862  11.001  -6.230  1.00  0.00     0.164 HD
BRANCH  12  15
ATOM     15  CA  SER A   1      12.662  13.411  -6.387  1.00  0.00     0.167 C 
BRANCH  15  16
ATOM     16  N   SER A   1      12.457  14.860  -6.396  1.00  0.00    -0.318 NA
ATOM     17  H   UNL     1      12.288  15.188  -5.417  1.00  0.00     0.119 HD
ATOM     18  H   UNL     1      13.319  15.337  -6.750  1.00  0.00     0.119 HD
ENDBRANCH  15  16
BRANCH  15  19
ATOM     19  CB  SER A   1      12.690  12.890  -7.842  1.00  0.00     0.184 C 
BRANCH  19  20
ATOM     20  OG  SER A   1      11.437  13.055  -8.445  1.00  0.00    -0.394 OA
ATOM     21  H   UNL     1      10.841  12.358  -8.062  1.00  0.00     0.210 HD
ENDBRANCH  19  20
ENDBRANCH  15  19
ENDBRANCH  12  15
ENDBRANCH  10  11
BRANCH  10  22
ATOM     22  CB  HIS A   2      15.577   9.738  -4.902  1.00  0.00     0.093 C 
BRANCH  22  23
ATOM     23  CG  HIS A   2      14.400   9.292  -4.101  1.00  0.00     0.061 A 
ATOM     24  ND1 HIS A   2      14.282   9.473  -2.769  1.00  0.00    -0.242 NA
ATOM     25  CD2 HIS A   2      13.264   8.690  -4.594  1.00  0.00     0.107 A 
ATOM     26  CE1 HIS A   2      13.066   8.962  -2.480  1.00  0.00     0.196 A 
ATOM     27  NE2 HIS A   2      12.429   8.482  -3.565  1.00  0.00    -0.351 N 
ATOM     28  H   UNL     1      11.481   8.046  -3.599  1.00  0.00     0.167 HD
ENDBRANCH  22  23
ENDBRANCH  10  22
ENDBRANCH   7  10
ENDBRANCH   5   6
BRANCH   5  29
ATOM     29  CB  LEU A   3      20.157  12.248  -5.215  1.00  0.00     0.038 C 
BRANCH  29  30
ATOM     30  CG  LEU A   3      20.415  11.678  -3.791  1.00  0.00    -0.015 C 
ATOM     31  CD1 LEU A   3      21.818  12.067  -3.319  1.00  0.00     0.007 C 
ATOM     32  CD2 LEU A   3      19.369  12.169  -2.779  1.00  0.00     0.007 C 
ENDBRANCH  29  30
ENDBRANCH   5  29
ENDBRANCH   1   5
BRANCH   3  33
ATOM     33  CA  ALA A   4      21.342   8.748  -8.157  1.00  0.00     0.168 C 
ATOM     34  CB  ALA A   4      20.664   8.007  -9.299  1.00  0.00     0.041 C 
BRANCH  33  35
ATOM     35  C   ALA A   4      22.710   9.198  -8.533  1.00  0.00     0.242 C 
ATOM     36  N   ARG A   5      23.817   8.707  -7.791  1.00  0.00    -0.343 N 
ATOM     37  O   ALA A   4      22.877  10.027  -9.470  1.00  0.00    -0.273 OA
ATOM     38  H   UNL     1      23.661   7.985  -7.050  1.00  0.00     0.164 HD
BRANCH  36  39
ATOM     39  CA  ARG A   5      25.181   9.117  -8.072  1.00  0.00     0.171 C 
BRANCH  39  40
ATOM     40  C   ARG A   5      25.901   7.968  -8.686  1.00  0.00     0.243 C 
ATOM     41  N   ASN A   6      25.916   7.866 -10.103  1.00  0.00    -0.341 N 
ATOM     42  O   ARG A   5      26.450   7.087  -7.970  1.00  0.00    -0.273 OA
ATOM     43  H   UNL     1      25.496   8.651 -10.651  1.00  0.00     0.164 HD
BRANCH  41  44
ATOM     44  CA  ASN A   6      26.543   6.751 -10.804  1.00  0.00     0.201 C 
BRANCH  44  45
ATOM     45  C   ASN A   6      27.994   6.642 -10.417  1.00  0.00     0.326 C 
ATOM     46  O   ASN A   6      28.795   7.579 -10.677  1.00  0.00    -0.250 OA
BRANCH  45  47
ATOM     47  OXT ASN A   6      28.453   5.497  -9.772  1.00  0.00    -0.480 OA
ATOM     48  H   UNL     1      29.426   5.407  -9.504  1.00  0.00     0.296 HD
ENDBRANCH  45  47
ENDBRANCH  44  45
BRANCH  44  49
ATOM     49  CB  ASN A   6      26.424   6.946 -12.323  1.00  0.00     0.136 C 
BRANCH  49  50
ATOM     50  CG  ASN A   6      25.009   7.181 -12.772  1.00  0.00     0.220 C 
ATOM     51  ND2 ASN A   6      24.753   8.089 -13.834  1.00  0.00    -0.370 N 
ATOM     52  OD1 ASN A   6      24.051   6.563 -12.238  1.00  0.00    -0.275 OA
ATOM     53  H   UNL     1      23.775   8.258 -14.156  1.00  0.00     0.159 HD
ATOM     54  H   UNL     1      25.533   8.595 -14.309  1.00  0.00     0.159 HD
ENDBRANCH  49  50
ENDBRANCH  44  49
ENDBRANCH  41  44
ENDBRANCH  39  40
BRANCH  39  55
ATOM     55  CB  ARG A   5      25.855   9.600  -6.793  1.00  0.00     0.037 C 
BRANCH  55  56
ATOM     56  CG  ARG A   5      25.163  10.859  -6.272  1.00  0.00     0.024 C 
BRANCH  56  57
ATOM     57  CD  ARG A   5      25.838  11.391  -5.015  1.00  0.00     0.116 C 
BRANCH  57  58
ATOM     58  NE  ARG A   5      25.377  10.684  -3.823  1.00  0.00    -0.357 N 
ATOM     59  CZ  ARG A   5      25.468  11.279  -2.527  1.00  0.00     0.185 C 
ATOM     60  NH2 ARG A   5      26.105  12.541  -2.350  1.00  0.00    -0.370 N 
ATOM     61  H   UNL     1      24.898   9.759  -3.921  1.00  0.00     0.163 HD
ATOM     62  H   UNL     1      26.691  12.983  -3.091  1.00  0.00     0.159 HD
ATOM     63  H   UNL     1      26.081  13.007  -1.416  1.00  0.00     0.159 HD
BRANCH  59  64
ATOM     64  NH1 ARG A   5      24.957  10.679  -1.500  1.00  0.00    -0.270 NA
ATOM     65  H   UNL     1      24.474   9.757  -1.584  1.00  0.00     0.191 HD
ENDBRANCH  59  64
ENDBRANCH  57  58
ENDBRANCH  56  57
ENDBRANCH  55  56
ENDBRANCH  39  55
ENDBRANCH  36  39
ENDBRANCH  33  35
ENDBRANCH   3  33
TORSDOF 26
