REMARK SMILES CC(C)C[C@H](NC(=O)[C@H](Cc1c[nH]cn1)NC(=O)[C@@H](N)CO)C(=O)N1CCC[C@H]1C(=O)N[C@@H](CCCNC(=N)N)C(=O)N[C@@H](CC(N)=O)C(=O)O
REMARK SMILES IDX 25 1 29 2 28 3 27 4 26 5 23 6 24 7 5 8 6 9 7 10 8 11 9 13
REMARK SMILES IDX 16 14 17 15 18 16 19 18 20 19 21 22 22 23 10 25 11 26 15 27
REMARK SMILES IDX 12 28 14 29 13 30 4 32 2 33 1 34 3 35 30 36 32 37 31 38
REMARK SMILES IDX 33 40 41 41 43 42 42 43 44 45 49 46 50 47 51 48 45 50 46 51
REMARK SMILES IDX 47 52 48 53 34 56 35 57 36 58 37 59 38 60 40 61 39 65
REMARK H PARENT 6 12 16 17 20 20 20 21 22 24 13 31 32 39 43 44 51 49 47 54
REMARK H PARENT 47 55 37 62 40 63 40 64 39 66
ROOT
ATOM      1  N   PRO A   4      20.464  10.024  -8.007  1.00  0.00    -0.329 N 
ATOM      2  CA  PRO A   4      21.294   8.833  -8.111  1.00  0.00     0.174 C 
ATOM      3  CB  PRO A   4      20.622   7.954  -9.167  1.00  0.00     0.037 C 
ATOM      4  CG  PRO A   4      19.629   8.855  -9.901  1.00  0.00     0.024 C 
ATOM      5  CD  PRO A   4      19.401  10.064  -9.000  1.00  0.00     0.120 C 
ENDROOT
BRANCH   1   6
ATOM      6  C   LEU A   3      20.638  10.996  -6.958  1.00  0.00     0.245 C 
ATOM      7  O   LEU A   3      20.982  10.605  -5.810  1.00  0.00    -0.272 OA
BRANCH   6   8
ATOM      8  CA  LEU A   3      20.498  12.478  -7.235  1.00  0.00     0.171 C 
BRANCH   8   9
ATOM      9  N   LEU A   3      19.447  13.075  -6.403  1.00  0.00    -0.342 N 
ATOM     10  C   HIS A   2      18.861  14.346  -6.727  1.00  0.00     0.243 C 
ATOM     11  O   HIS A   2      18.992  14.813  -7.892  1.00  0.00    -0.273 OA
ATOM     12  H   UNL     1      19.116  12.568  -5.549  1.00  0.00     0.164 HD
BRANCH  10  13
ATOM     13  CA  HIS A   2      18.026  15.097  -5.710  1.00  0.00     0.177 C 
BRANCH  13  14
ATOM     14  N   HIS A   2      18.422  14.746  -4.341  1.00  0.00    -0.342 N 
ATOM     15  C   SER A   1      17.508  14.810  -3.235  1.00  0.00     0.239 C 
ATOM     16  O   SER A   1      16.279  15.001  -3.443  1.00  0.00    -0.273 OA
ATOM     17  H   UNL     1      19.437  14.619  -4.134  1.00  0.00     0.164 HD
BRANCH  15  18
ATOM     18  CA  SER A   1      18.001  14.670  -1.817  1.00  0.00     0.167 C 
BRANCH  18  19
ATOM     19  N   SER A   1      18.660  13.373  -1.641  1.00  0.00    -0.318 NA
ATOM     20  H   UNL     1      18.846  13.232  -0.621  1.00  0.00     0.119 HD
ATOM     21  H   UNL     1      19.588  13.378  -2.123  1.00  0.00     0.119 HD
ENDBRANCH  18  19
BRANCH  18  22
ATOM     22  CB  SER A   1      18.939  15.827  -1.435  1.00  0.00     0.184 C 
BRANCH  22  23
ATOM     23  OG  SER A   1      18.268  17.053  -1.565  1.00  0.00    -0.394 OA
ATOM     24  H   UNL     1      18.929  17.754  -1.334  1.00  0.00     0.210 HD
ENDBRANCH  22  23
ENDBRANCH  18  22
ENDBRANCH  15  18
ENDBRANCH  13  14
BRANCH  13  25
ATOM     25  CB  HIS A   2      18.109  16.628  -5.898  1.00  0.00     0.093 C 
BRANCH  25  26
ATOM     26  CG  HIS A   2      19.496  17.160  -5.671  1.00  0.00     0.061 A 
ATOM     27  ND1 HIS A   2      20.013  17.419  -4.453  1.00  0.00    -0.242 NA
ATOM     28  CD2 HIS A   2      20.449  17.386  -6.640  1.00  0.00     0.107 A 
ATOM     29  CE1 HIS A   2      21.278  17.811  -4.714  1.00  0.00     0.196 A 
ATOM     30  NE2 HIS A   2      21.569  17.800  -6.029  1.00  0.00    -0.351 N 
ATOM     31  H   UNL     1      22.478  18.048  -6.478  1.00  0.00     0.167 HD
ENDBRANCH  25  26
ENDBRANCH  13  25
ENDBRANCH  10  13
ENDBRANCH   8   9
BRANCH   8  32
ATOM     32  CB  LEU A   3      21.861  13.221  -7.107  1.00  0.00     0.038 C 
BRANCH  32  33
ATOM     33  CG  LEU A   3      22.125  14.004  -5.792  1.00  0.00    -0.015 C 
ATOM     34  CD1 LEU A   3      22.196  13.100  -4.553  1.00  0.00     0.007 C 
ATOM     35  CD2 LEU A   3      23.426  14.809  -5.922  1.00  0.00     0.007 C 
ENDBRANCH  32  33
ENDBRANCH   8  32
ENDBRANCH   6   8
ENDBRANCH   1   6
BRANCH   2  36
ATOM     36  C   PRO A   4      22.684   9.228  -8.514  1.00  0.00     0.243 C 
ATOM     37  N   ARG A   5      23.794   8.703  -7.794  1.00  0.00    -0.343 N 
ATOM     38  O   PRO A   4      22.864  10.028  -9.472  1.00  0.00    -0.273 OA
ATOM     39  H   UNL     1      23.627   7.978  -7.059  1.00  0.00     0.164 HD
BRANCH  37  40
ATOM     40  CA  ARG A   5      25.164   9.111  -8.072  1.00  0.00     0.171 C 
BRANCH  40  41
ATOM     41  C   ARG A   5      25.891   7.964  -8.685  1.00  0.00     0.243 C 
ATOM     42  N   ASN A   6      25.915   7.865 -10.103  1.00  0.00    -0.341 N 
ATOM     43  O   ARG A   5      26.445   7.087  -7.969  1.00  0.00    -0.273 OA
ATOM     44  H   UNL     1      25.497   8.652 -10.652  1.00  0.00     0.164 HD
BRANCH  42  45
ATOM     45  CA  ASN A   6      26.544   6.751 -10.804  1.00  0.00     0.201 C 
BRANCH  45  46
ATOM     46  C   ASN A   6      27.996   6.645 -10.418  1.00  0.00     0.326 C 
ATOM     47  O   ASN A   6      28.794   7.584 -10.679  1.00  0.00    -0.250 OA
BRANCH  46  48
ATOM     48  OXT ASN A   6      28.459   5.502  -9.774  1.00  0.00    -0.480 OA
ATOM     49  H   UNL     1      29.433   5.416  -9.508  1.00  0.00     0.296 HD
ENDBRANCH  46  48
ENDBRANCH  45  46
BRANCH  45  50
ATOM     50  CB  ASN A   6      26.424   6.946 -12.324  1.00  0.00     0.136 C 
BRANCH  50  51
ATOM     51  CG  ASN A   6      25.009   7.182 -12.771  1.00  0.00     0.220 C 
ATOM     52  ND2 ASN A   6      24.752   8.090 -13.833  1.00  0.00    -0.370 N 
ATOM     53  OD1 ASN A   6      24.051   6.563 -12.237  1.00  0.00    -0.275 OA
ATOM     54  H   UNL     1      25.532   8.594 -14.309  1.00  0.00     0.159 HD
ATOM     55  H   UNL     1      23.773   8.256 -14.157  1.00  0.00     0.159 HD
ENDBRANCH  50  51
ENDBRANCH  45  50
ENDBRANCH  42  45
ENDBRANCH  40  41
BRANCH  40  56
ATOM     56  CB  ARG A   5      25.843   9.593  -6.794  1.00  0.00     0.037 C 
BRANCH  56  57
ATOM     57  CG  ARG A   5      25.161  10.854  -6.270  1.00  0.00     0.024 C 
BRANCH  57  58
ATOM     58  CD  ARG A   5      25.845  11.380  -5.015  1.00  0.00     0.116 C 
BRANCH  58  59
ATOM     59  NE  ARG A   5      25.372  10.685  -3.820  1.00  0.00    -0.357 N 
ATOM     60  CZ  ARG A   5      25.466  11.282  -2.527  1.00  0.00     0.185 C 
ATOM     61  NH2 ARG A   5      26.105  12.547  -2.355  1.00  0.00    -0.370 N 
ATOM     62  H   UNL     1      24.889   9.762  -3.908  1.00  0.00     0.163 HD
ATOM     63  H   UNL     1      26.696  12.983  -3.096  1.00  0.00     0.159 HD
ATOM     64  H   UNL     1      26.076  13.027  -1.428  1.00  0.00     0.159 HD
BRANCH  60  65
ATOM     65  NH1 ARG A   5      24.955  10.673  -1.506  1.00  0.00    -0.270 NA
ATOM     66  H   UNL     1      24.999  11.079  -0.544  1.00  0.00     0.191 HD
ENDBRANCH  60  65
ENDBRANCH  58  59
ENDBRANCH  57  58
ENDBRANCH  56  57
ENDBRANCH  40  56
ENDBRANCH  37  40
ENDBRANCH   2  36
TORSDOF 26
