REMARK SMILES CC(C)C[C@H](NC(=O)[C@H](Cc1ccccc1)NC(=O)CNC(=O)[C@@H](N)CO)C(=O)N[C@@H](CCCNC(=N)N)C(=O)N[C@@H](CC(N)=O)C(=O)O
REMARK SMILES IDX 7 1 8 2 6 3 9 5 17 6 18 7 19 8 20 10 21 11 22 12 23 13 24 15
REMARK SMILES IDX 25 16 26 19 27 20 10 22 11 23 12 24 16 25 13 26 15 27 14 28
REMARK SMILES IDX 5 29 28 30 30 31 29 32 31 34 39 35 41 36 40 37 42 39 47 40
REMARK SMILES IDX 48 41 49 42 43 44 44 45 45 46 46 47 32 50 33 51 34 52 35 53
REMARK SMILES IDX 36 54 38 55 37 59 4 61 2 62 1 63 3 64
REMARK H PARENT 6 4 17 9 21 14 25 17 25 18 27 21 30 33 41 38 49 43 45 48 45 49
REMARK H PARENT 35 56 38 57 38 58 37 60
ROOT
ATOM      1  C   PHE A   3      20.044  10.083  -6.457  1.00  0.00     0.243 C 
ATOM      2  O   PHE A   3      20.170   9.168  -5.597  1.00  0.00    -0.273 OA
ATOM      3  N   LEU A   4      20.564   9.922  -7.767  1.00  0.00    -0.343 N 
ATOM      4  H   UNL     1      20.397  10.663  -8.486  1.00  0.00     0.164 HD
ENDROOT
BRANCH   1   5
ATOM      5  CA  PHE A   3      19.318  11.340  -6.121  1.00  0.00     0.175 C 
BRANCH   5   6
ATOM      6  N   PHE A   3      18.040  10.993  -5.528  1.00  0.00    -0.342 N 
ATOM      7  C   GLY A   2      16.869  11.762  -5.739  1.00  0.00     0.240 C 
ATOM      8  O   GLY A   2      16.902  12.807  -6.445  1.00  0.00    -0.273 OA
ATOM      9  H   UNL     1      18.005  10.229  -4.814  1.00  0.00     0.164 HD
BRANCH   7  10
ATOM     10  CA  GLY A   2      15.634  11.330  -5.024  1.00  0.00     0.216 C 
BRANCH  10  11
ATOM     11  N   GLY A   2      14.440  11.726  -5.741  1.00  0.00    -0.346 N 
ATOM     12  C   SER A   1      13.911  13.043  -5.629  1.00  0.00     0.239 C 
ATOM     13  O   SER A   1      14.447  13.868  -4.838  1.00  0.00    -0.273 OA
ATOM     14  H   UNL     1      13.857  10.960  -6.144  1.00  0.00     0.164 HD
BRANCH  12  15
ATOM     15  CA  SER A   1      12.658  13.407  -6.385  1.00  0.00     0.167 C 
BRANCH  15  16
ATOM     16  N   SER A   1      12.456  14.857  -6.404  1.00  0.00    -0.318 NA
ATOM     17  H   UNL     1      12.287  15.192  -5.427  1.00  0.00     0.119 HD
ATOM     18  H   UNL     1      13.318  15.330  -6.762  1.00  0.00     0.119 HD
ENDBRANCH  15  16
BRANCH  15  19
ATOM     19  CB  SER A   1      12.691  12.874  -7.834  1.00  0.00     0.184 C 
BRANCH  19  20
ATOM     20  OG  SER A   1      11.444  13.047  -8.447  1.00  0.00    -0.394 OA
ATOM     21  H   UNL     1      10.839  12.357  -8.066  1.00  0.00     0.210 HD
ENDBRANCH  19  20
ENDBRANCH  15  19
ENDBRANCH  12  15
ENDBRANCH  10  11
ENDBRANCH   7  10
ENDBRANCH   5   6
BRANCH   5  22
ATOM     22  CB  PHE A   3      20.138  12.246  -5.187  1.00  0.00     0.070 C 
BRANCH  22  23
ATOM     23  CG  PHE A   3      20.378  11.651  -3.818  1.00  0.00    -0.045 A 
ATOM     24  CD1 PHE A   3      21.521  10.874  -3.567  1.00  0.00     0.004 A 
ATOM     25  CD2 PHE A   3      19.431  11.831  -2.795  1.00  0.00     0.004 A 
ATOM     26  CE1 PHE A   3      21.700  10.266  -2.321  1.00  0.00     0.000 A 
ATOM     27  CE2 PHE A   3      19.624  11.237  -1.544  1.00  0.00     0.000 A 
ATOM     28  CZ  PHE A   3      20.755  10.452  -1.309  1.00  0.00     0.000 A 
ENDBRANCH  22  23
ENDBRANCH   5  22
ENDBRANCH   1   5
BRANCH   3  29
ATOM     29  CA  LEU A   4      21.348   8.761  -8.138  1.00  0.00     0.171 C 
BRANCH  29  30
ATOM     30  C   LEU A   4      22.713   9.217  -8.520  1.00  0.00     0.243 C 
ATOM     31  N   ARG A   5      23.822   8.720  -7.785  1.00  0.00    -0.343 N 
ATOM     32  O   LEU A   4      22.877  10.033  -9.468  1.00  0.00    -0.273 OA
ATOM     33  H   UNL     1      23.667   8.031  -7.015  1.00  0.00     0.164 HD
BRANCH  31  34
ATOM     34  CA  ARG A   5      25.186   9.122  -8.072  1.00  0.00     0.171 C 
BRANCH  34  35
ATOM     35  C   ARG A   5      25.900   7.968  -8.685  1.00  0.00     0.243 C 
ATOM     36  N   ASN A   6      25.913   7.864 -10.102  1.00  0.00    -0.341 N 
ATOM     37  O   ARG A   5      26.447   7.087  -7.969  1.00  0.00    -0.273 OA
ATOM     38  H   UNL     1      25.488   8.647 -10.651  1.00  0.00     0.164 HD
BRANCH  36  39
ATOM     39  CA  ASN A   6      26.542   6.751 -10.804  1.00  0.00     0.201 C 
BRANCH  39  40
ATOM     40  C   ASN A   6      27.993   6.642 -10.416  1.00  0.00     0.326 C 
ATOM     41  O   ASN A   6      28.794   7.579 -10.677  1.00  0.00    -0.250 OA
BRANCH  40  42
ATOM     42  OXT ASN A   6      28.451   5.499  -9.768  1.00  0.00    -0.480 OA
ATOM     43  H   UNL     1      29.424   5.409  -9.499  1.00  0.00     0.296 HD
ENDBRANCH  40  42
ENDBRANCH  39  40
BRANCH  39  44
ATOM     44  CB  ASN A   6      26.424   6.947 -12.323  1.00  0.00     0.136 C 
BRANCH  44  45
ATOM     45  CG  ASN A   6      25.010   7.181 -12.773  1.00  0.00     0.220 C 
ATOM     46  ND2 ASN A   6      24.753   8.090 -13.833  1.00  0.00    -0.370 N 
ATOM     47  OD1 ASN A   6      24.053   6.558 -12.243  1.00  0.00    -0.275 OA
ATOM     48  H   UNL     1      23.775   8.258 -14.156  1.00  0.00     0.159 HD
ATOM     49  H   UNL     1      25.533   8.600 -14.306  1.00  0.00     0.159 HD
ENDBRANCH  44  45
ENDBRANCH  39  44
ENDBRANCH  36  39
ENDBRANCH  34  35
BRANCH  34  50
ATOM     50  CB  ARG A   5      25.863   9.604  -6.795  1.00  0.00     0.037 C 
BRANCH  50  51
ATOM     51  CG  ARG A   5      25.167  10.859  -6.270  1.00  0.00     0.024 C 
BRANCH  51  52
ATOM     52  CD  ARG A   5      25.840  11.391  -5.013  1.00  0.00     0.116 C 
BRANCH  52  53
ATOM     53  NE  ARG A   5      25.375  10.688  -3.819  1.00  0.00    -0.357 N 
ATOM     54  CZ  ARG A   5      25.472  11.283  -2.526  1.00  0.00     0.185 C 
ATOM     55  NH2 ARG A   5      26.109  12.548  -2.353  1.00  0.00    -0.370 N 
ATOM     56  H   UNL     1      24.890   9.766  -3.910  1.00  0.00     0.163 HD
ATOM     57  H   UNL     1      26.086  13.025  -1.424  1.00  0.00     0.159 HD
ATOM     58  H   UNL     1      26.695  12.985  -3.096  1.00  0.00     0.159 HD
BRANCH  54  59
ATOM     59  NH1 ARG A   5      24.966  10.672  -1.503  1.00  0.00    -0.270 NA
ATOM     60  H   UNL     1      25.012  11.075  -0.541  1.00  0.00     0.191 HD
ENDBRANCH  54  59
ENDBRANCH  52  53
ENDBRANCH  51  52
ENDBRANCH  50  51
ENDBRANCH  34  50
ENDBRANCH  31  34
ENDBRANCH  29  30
BRANCH  29  61
ATOM     61  CB  LEU A   4      20.655   8.000  -9.271  1.00  0.00     0.038 C 
BRANCH  61  62
ATOM     62  CG  LEU A   4      21.448   6.772  -9.768  1.00  0.00    -0.015 C 
ATOM     63  CD1 LEU A   4      21.762   5.779  -8.639  1.00  0.00     0.007 C 
ATOM     64  CD2 LEU A   4      20.661   6.068 -10.877  1.00  0.00     0.007 C 
ENDBRANCH  61  62
ENDBRANCH  29  61
ENDBRANCH   3  29
TORSDOF 26
