REMARK SMILES CC(C)C[C@H](NC(=O)[C@H](C)NC(=O)[C@@H](N)CO)C(=O)N[C@@H](Cc1ccccc1)C(=O)N[C@@H](CCCNC(=N)N)C(=O)N[C@@H](CC(N)=O)C(=O)O
REMARK SMILES IDX 18 1 19 2 20 3 5 5 6 6 7 7 8 8 9 10 10 11 11 12 12 13 13 14
REMARK SMILES IDX 14 16 15 17 16 20 17 21 4 23 2 24 1 25 3 26 21 27 29 28
REMARK SMILES IDX 31 29 30 30 32 32 40 33 42 34 41 35 43 37 48 38 49 39 50 40
REMARK SMILES IDX 44 42 45 43 46 44 47 45 33 48 34 49 35 50 36 51 37 52 39 53
REMARK SMILES IDX 38 57 22 59 23 60 24 61 28 62 25 63 27 64 26 65
REMARK H PARENT 20 4 6 9 11 15 15 18 15 19 17 22 31 31 42 36 50 41 46 46 46 47
REMARK H PARENT 36 54 39 55 39 56 38 58
ROOT
ATOM      1  C   LEU A   3      20.064  10.071  -6.443  1.00  0.00     0.243 C 
ATOM      2  O   LEU A   3      20.212   9.172  -5.573  1.00  0.00    -0.273 OA
ATOM      3  N   PHE A   4      20.560   9.896  -7.766  1.00  0.00    -0.342 N 
ATOM      4  H   UNL     1      20.389  10.640  -8.482  1.00  0.00     0.164 HD
ENDROOT
BRANCH   1   5
ATOM      5  CA  LEU A   3      19.321  11.320  -6.124  1.00  0.00     0.171 C 
BRANCH   5   6
ATOM      6  N   LEU A   3      18.066  10.999  -5.490  1.00  0.00    -0.343 N 
ATOM      7  C   ALA A   2      16.874  11.739  -5.726  1.00  0.00     0.242 C 
ATOM      8  O   ALA A   2      16.901  12.784  -6.436  1.00  0.00    -0.273 OA
ATOM      9  H   UNL     1      18.082  10.263  -4.754  1.00  0.00     0.164 HD
BRANCH   7  10
ATOM     10  CA  ALA A   2      15.613  11.293  -5.037  1.00  0.00     0.168 C 
ATOM     11  CB  ALA A   2      15.557   9.761  -4.898  1.00  0.00     0.041 C 
BRANCH  10  12
ATOM     12  N   ALA A   2      14.439  11.734  -5.771  1.00  0.00    -0.343 N 
ATOM     13  C   SER A   1      13.911  13.048  -5.639  1.00  0.00     0.239 C 
ATOM     14  O   SER A   1      14.450  13.865  -4.842  1.00  0.00    -0.273 OA
ATOM     15  H   UNL     1      13.852  11.002  -6.228  1.00  0.00     0.164 HD
BRANCH  13  16
ATOM     16  CA  SER A   1      12.653  13.413  -6.386  1.00  0.00     0.167 C 
BRANCH  16  17
ATOM     17  N   SER A   1      12.468  14.865  -6.381  1.00  0.00    -0.318 NA
ATOM     18  H   UNL     1      12.304  15.174  -5.395  1.00  0.00     0.119 HD
ATOM     19  H   UNL     1      11.583  15.093  -6.891  1.00  0.00     0.119 HD
ENDBRANCH  16  17
BRANCH  16  20
ATOM     20  CB  SER A   1      12.694  12.900  -7.847  1.00  0.00     0.184 C 
BRANCH  20  21
ATOM     21  OG  SER A   1      11.437  13.039  -8.451  1.00  0.00    -0.394 OA
ATOM     22  H   UNL     1      10.857  12.329  -8.069  1.00  0.00     0.210 HD
ENDBRANCH  20  21
ENDBRANCH  16  20
ENDBRANCH  13  16
ENDBRANCH  10  12
ENDBRANCH   7  10
ENDBRANCH   5   6
BRANCH   5  23
ATOM     23  CB  LEU A   3      20.143  12.332  -5.313  1.00  0.00     0.038 C 
BRANCH  23  24
ATOM     24  CG  LEU A   3      20.425  12.201  -3.791  1.00  0.00    -0.015 C 
ATOM     25  CD1 LEU A   3      21.817  11.748  -3.390  1.00  0.00     0.007 C 
ATOM     26  CD2 LEU A   3      19.292  11.875  -2.832  1.00  0.00     0.007 C 
ENDBRANCH  23  24
ENDBRANCH   5  23
ENDBRANCH   1   5
BRANCH   3  27
ATOM     27  CA  PHE A   4      21.353   8.745  -8.162  1.00  0.00     0.175 C 
BRANCH  27  28
ATOM     28  C   PHE A   4      22.717   9.229  -8.503  1.00  0.00     0.243 C 
ATOM     29  N   ARG A   5      23.823   8.718  -7.775  1.00  0.00    -0.343 N 
ATOM     30  O   PHE A   4      22.887  10.053  -9.443  1.00  0.00    -0.273 OA
ATOM     31  H   UNL     1      23.666   7.990  -7.041  1.00  0.00     0.164 HD
BRANCH  29  32
ATOM     32  CA  ARG A   5      25.187   9.119  -8.067  1.00  0.00     0.171 C 
BRANCH  32  33
ATOM     33  C   ARG A   5      25.903   7.967  -8.684  1.00  0.00     0.243 C 
ATOM     34  N   ASN A   6      25.920   7.868 -10.102  1.00  0.00    -0.341 N 
ATOM     35  O   ARG A   5      26.448   7.084  -7.970  1.00  0.00    -0.273 OA
ATOM     36  H   UNL     1      25.494   8.652 -10.650  1.00  0.00     0.164 HD
BRANCH  34  37
ATOM     37  CA  ASN A   6      26.550   6.757 -10.807  1.00  0.00     0.201 C 
BRANCH  37  38
ATOM     38  C   ASN A   6      27.998   6.647 -10.417  1.00  0.00     0.326 C 
ATOM     39  O   ASN A   6      28.800   7.583 -10.678  1.00  0.00    -0.250 OA
BRANCH  38  40
ATOM     40  OXT ASN A   6      28.455   5.504  -9.769  1.00  0.00    -0.480 OA
ATOM     41  H   UNL     1      29.427   5.413  -9.498  1.00  0.00     0.296 HD
ENDBRANCH  38  40
ENDBRANCH  37  38
BRANCH  37  42
ATOM     42  CB  ASN A   6      26.432   6.954 -12.327  1.00  0.00     0.136 C 
BRANCH  42  43
ATOM     43  CG  ASN A   6      25.020   7.187 -12.785  1.00  0.00     0.220 C 
ATOM     44  ND2 ASN A   6      24.765   8.104 -13.838  1.00  0.00    -0.370 N 
ATOM     45  OD1 ASN A   6      24.064   6.550 -12.277  1.00  0.00    -0.275 OA
ATOM     46  H   UNL     1      23.788   8.265 -14.169  1.00  0.00     0.159 HD
ATOM     47  H   UNL     1      25.544   8.625 -14.298  1.00  0.00     0.159 HD
ENDBRANCH  42  43
ENDBRANCH  37  42
ENDBRANCH  34  37
ENDBRANCH  32  33
BRANCH  32  48
ATOM     48  CB  ARG A   5      25.864   9.604  -6.791  1.00  0.00     0.037 C 
BRANCH  48  49
ATOM     49  CG  ARG A   5      25.166  10.859  -6.268  1.00  0.00     0.024 C 
BRANCH  49  50
ATOM     50  CD  ARG A   5      25.840  11.391  -5.012  1.00  0.00     0.116 C 
BRANCH  50  51
ATOM     51  NE  ARG A   5      25.376  10.687  -3.819  1.00  0.00    -0.357 N 
ATOM     52  CZ  ARG A   5      25.468  11.282  -2.526  1.00  0.00     0.185 C 
ATOM     53  NH2 ARG A   5      26.108  12.546  -2.351  1.00  0.00    -0.370 N 
ATOM     54  H   UNL     1      24.891   9.765  -3.912  1.00  0.00     0.163 HD
ATOM     55  H   UNL     1      26.697  12.982  -3.092  1.00  0.00     0.159 HD
ATOM     56  H   UNL     1      26.081  13.023  -1.422  1.00  0.00     0.159 HD
BRANCH  52  57
ATOM     57  NH1 ARG A   5      24.954  10.672  -1.506  1.00  0.00    -0.270 NA
ATOM     58  H   UNL     1      24.995  11.076  -0.544  1.00  0.00     0.191 HD
ENDBRANCH  52  57
ENDBRANCH  50  51
ENDBRANCH  49  50
ENDBRANCH  48  49
ENDBRANCH  32  48
ENDBRANCH  29  32
ENDBRANCH  27  28
BRANCH  27  59
ATOM     59  CB  PHE A   4      20.713   8.052  -9.373  1.00  0.00     0.070 C 
BRANCH  59  60
ATOM     60  CG  PHE A   4      21.249   6.657  -9.631  1.00  0.00    -0.045 A 
ATOM     61  CD1 PHE A   4      20.327   5.589  -9.636  1.00  0.00     0.004 A 
ATOM     62  CD2 PHE A   4      22.613   6.361  -9.785  1.00  0.00     0.004 A 
ATOM     63  CE1 PHE A   4      20.760   4.267  -9.766  1.00  0.00     0.000 A 
ATOM     64  CE2 PHE A   4      23.044   5.032  -9.886  1.00  0.00     0.000 A 
ATOM     65  CZ  PHE A   4      22.120   3.988  -9.881  1.00  0.00     0.000 A 
ENDBRANCH  59  60
ENDBRANCH  27  59
ENDBRANCH   3  27
TORSDOF 26
