REMARK SMILES CC(C)C[C@H](NC(=O)[C@H](Cc1ccccc1)NC(=O)[C@@H](N)CO)C(=O)N[C@@H](Cc1c[nH]cn1)C(=O)N[C@@H](Cc1c[nH]cn1)C(=O)N[C@@H](CC(N)=O)C(=O)O
REMARK SMILES IDX 24 1 25 2 26 3 5 5 6 6 7 7 8 8 9 10 17 11 18 12 19 13 20 15
REMARK SMILES IDX 21 16 22 19 23 20 10 22 11 23 12 24 16 25 13 26 15 27 14 28
REMARK SMILES IDX 4 29 2 30 1 31 3 32 27 33 34 34 36 35 35 36 37 38 44 39
REMARK SMILES IDX 46 40 45 41 47 43 52 44 53 45 54 46 48 48 49 49 50 50 51 51
REMARK SMILES IDX 38 54 39 55 43 56 40 57 42 58 41 59 28 61 29 62 33 63 30 64
REMARK SMILES IDX 32 65 31 66
REMARK H PARENT 26 4 6 9 17 14 21 17 21 18 23 21 36 37 46 42 54 47 50 52 50 53
REMARK H PARENT 41 60 31 67
ROOT
ATOM      1  C   LEU A   3      20.054  10.081  -6.478  1.00  0.00     0.243 C 
ATOM      2  O   LEU A   3      20.168   9.158  -5.623  1.00  0.00    -0.273 OA
ATOM      3  N   HIS A   4      20.564   9.909  -7.788  1.00  0.00    -0.342 N 
ATOM      4  H   UNL     1      20.400  10.650  -8.508  1.00  0.00     0.164 HD
ENDROOT
BRANCH   1   5
ATOM      5  CA  LEU A   3      19.341  11.352  -6.148  1.00  0.00     0.171 C 
BRANCH   5   6
ATOM      6  N   LEU A   3      18.083  11.020  -5.539  1.00  0.00    -0.343 N 
ATOM      7  C   PHE A   2      16.886  11.745  -5.777  1.00  0.00     0.243 C 
ATOM      8  O   PHE A   2      16.905  12.796  -6.475  1.00  0.00    -0.273 OA
ATOM      9  H   UNL     1      18.154  10.387  -4.718  1.00  0.00     0.164 HD
BRANCH   7  10
ATOM     10  CA  PHE A   2      15.651  11.313  -5.058  1.00  0.00     0.175 C 
BRANCH  10  11
ATOM     11  N   PHE A   2      14.454  11.739  -5.769  1.00  0.00    -0.343 N 
ATOM     12  C   SER A   1      13.914  13.049  -5.636  1.00  0.00     0.239 C 
ATOM     13  O   SER A   1      14.449  13.868  -4.838  1.00  0.00    -0.273 OA
ATOM     14  H   UNL     1      13.868  10.999  -6.214  1.00  0.00     0.164 HD
BRANCH  12  15
ATOM     15  CA  SER A   1      12.654  13.411  -6.385  1.00  0.00     0.167 C 
BRANCH  15  16
ATOM     16  N   SER A   1      12.468  14.864  -6.382  1.00  0.00    -0.318 NA
ATOM     17  H   UNL     1      12.337  15.179  -5.393  1.00  0.00     0.119 HD
ATOM     18  H   UNL     1      11.564  15.088  -6.857  1.00  0.00     0.119 HD
ENDBRANCH  15  16
BRANCH  15  19
ATOM     19  CB  SER A   1      12.696  12.894  -7.842  1.00  0.00     0.184 C 
BRANCH  19  20
ATOM     20  OG  SER A   1      11.440  13.036  -8.447  1.00  0.00    -0.394 OA
ATOM     21  H   UNL     1      11.454  13.890  -8.953  1.00  0.00     0.210 HD
ENDBRANCH  19  20
ENDBRANCH  15  19
ENDBRANCH  12  15
ENDBRANCH  10  11
BRANCH  10  22
ATOM     22  CB  PHE A   2      15.610   9.773  -4.881  1.00  0.00     0.070 C 
BRANCH  22  23
ATOM     23  CG  PHE A   2      14.435   9.292  -4.092  1.00  0.00    -0.045 A 
ATOM     24  CD1 PHE A   2      13.898  10.048  -3.033  1.00  0.00     0.004 A 
ATOM     25  CD2 PHE A   2      13.964   7.991  -4.310  1.00  0.00     0.004 A 
ATOM     26  CE1 PHE A   2      12.866   9.535  -2.258  1.00  0.00     0.000 A 
ATOM     27  CE2 PHE A   2      12.937   7.477  -3.520  1.00  0.00     0.000 A 
ATOM     28  CZ  PHE A   2      12.384   8.252  -2.500  1.00  0.00     0.000 A 
ENDBRANCH  22  23
ENDBRANCH  10  22
ENDBRANCH   7  10
ENDBRANCH   5   6
BRANCH   5  29
ATOM     29  CB  LEU A   3      20.165  12.249  -5.215  1.00  0.00     0.038 C 
BRANCH  29  30
ATOM     30  CG  LEU A   3      20.404  11.678  -3.787  1.00  0.00    -0.015 C 
ATOM     31  CD1 LEU A   3      21.807  12.048  -3.308  1.00  0.00     0.007 C 
ATOM     32  CD2 LEU A   3      19.359  12.180  -2.783  1.00  0.00     0.007 C 
ENDBRANCH  29  30
ENDBRANCH   5  29
ENDBRANCH   1   5
BRANCH   3  33
ATOM     33  CA  HIS A   4      21.347   8.746  -8.158  1.00  0.00     0.177 C 
BRANCH  33  34
ATOM     34  C   HIS A   4      22.713   9.208  -8.529  1.00  0.00     0.243 C 
ATOM     35  N   HIS A   5      23.819   8.730  -7.777  1.00  0.00    -0.342 N 
ATOM     36  O   HIS A   4      22.878  10.026  -9.474  1.00  0.00    -0.273 OA
ATOM     37  H   UNL     1      23.665   8.022  -7.023  1.00  0.00     0.164 HD
BRANCH  35  38
ATOM     38  CA  HIS A   5      25.181   9.133  -8.071  1.00  0.00     0.177 C 
BRANCH  38  39
ATOM     39  C   HIS A   5      25.898   7.974  -8.681  1.00  0.00     0.243 C 
ATOM     40  N   ASN A   6      25.911   7.866 -10.099  1.00  0.00    -0.340 N 
ATOM     41  O   HIS A   5      26.445   7.094  -7.964  1.00  0.00    -0.273 OA
ATOM     42  H   UNL     1      25.486   8.648 -10.649  1.00  0.00     0.164 HD
BRANCH  40  43
ATOM     43  CA  ASN A   6      26.541   6.752 -10.801  1.00  0.00     0.201 C 
BRANCH  43  44
ATOM     44  C   ASN A   6      27.991   6.643 -10.412  1.00  0.00     0.326 C 
ATOM     45  O   ASN A   6      28.794   7.578 -10.676  1.00  0.00    -0.250 OA
BRANCH  44  46
ATOM     46  OXT ASN A   6      28.448   5.501  -9.761  1.00  0.00    -0.480 OA
ATOM     47  H   UNL     1      29.421   5.411  -9.492  1.00  0.00     0.296 HD
ENDBRANCH  44  46
ENDBRANCH  43  44
BRANCH  43  48
ATOM     48  CB  ASN A   6      26.426   6.949 -12.321  1.00  0.00     0.136 C 
BRANCH  48  49
ATOM     49  CG  ASN A   6      25.013   7.184 -12.774  1.00  0.00     0.220 C 
ATOM     50  ND2 ASN A   6      24.757   8.092 -13.836  1.00  0.00    -0.370 N 
ATOM     51  OD1 ASN A   6      24.056   6.565 -12.243  1.00  0.00    -0.275 OA
ATOM     52  H   UNL     1      23.779   8.259 -14.159  1.00  0.00     0.159 HD
ATOM     53  H   UNL     1      25.537   8.600 -14.309  1.00  0.00     0.159 HD
ENDBRANCH  48  49
ENDBRANCH  43  48
ENDBRANCH  40  43
ENDBRANCH  38  39
BRANCH  38  54
ATOM     54  CB  HIS A   5      25.863   9.638  -6.800  1.00  0.00     0.093 C 
BRANCH  54  55
ATOM     55  CG  HIS A   5      25.206  10.862  -6.217  1.00  0.00     0.061 A 
ATOM     56  ND1 HIS A   5      25.425  11.259  -4.946  1.00  0.00    -0.242 NA
ATOM     57  CD2 HIS A   5      24.535  11.864  -6.896  1.00  0.00     0.107 A 
ATOM     58  CE1 HIS A   5      24.857  12.479  -4.873  1.00  0.00     0.196 A 
ATOM     59  NE2 HIS A   5      24.305  12.867  -6.037  1.00  0.00    -0.351 N 
ATOM     60  H   UNL     1      23.824  13.772  -6.237  1.00  0.00     0.167 HD
ENDBRANCH  54  55
ENDBRANCH  38  54
ENDBRANCH  35  38
ENDBRANCH  33  34
BRANCH  33  61
ATOM     61  CB  HIS A   4      20.664   8.000  -9.307  1.00  0.00     0.093 C 
BRANCH  61  62
ATOM     62  CG  HIS A   4      21.414   6.769  -9.741  1.00  0.00     0.061 A 
ATOM     63  ND1 HIS A   4      22.265   6.070  -8.960  1.00  0.00    -0.242 NA
ATOM     64  CD2 HIS A   4      21.204   6.090 -10.920  1.00  0.00     0.107 A 
ATOM     65  CE1 HIS A   4      22.582   4.991  -9.705  1.00  0.00     0.196 A 
ATOM     66  NE2 HIS A   4      21.949   4.974 -10.893  1.00  0.00    -0.351 N 
ATOM     67  H   UNL     1      22.015   4.241 -11.633  1.00  0.00     0.167 HD
ENDBRANCH  61  62
ENDBRANCH  33  61
ENDBRANCH   3  33
TORSDOF 25
