REMARK SMILES CC(C)C[C@H](NC(=O)[C@H](Cc1ccccc1)NC(=O)[C@@H](N)CO)C(=O)NCC(=O)N[C@@H](CCCNC(=N)N)C(=O)N[C@@H](CCC(N)=O)C(=O)O
REMARK SMILES IDX 24 1 25 2 26 3 5 5 6 6 7 7 8 8 9 10 17 11 18 12 19 13 20 15
REMARK SMILES IDX 21 16 22 19 23 20 10 22 11 23 12 24 16 25 13 26 15 27 14 28
REMARK SMILES IDX 4 29 2 30 1 31 3 32 27 33 28 34 30 35 29 36 31 38 39 39
REMARK SMILES IDX 41 40 40 41 42 43 48 44 49 45 50 46 43 48 44 49 45 50 46 51
REMARK SMILES IDX 47 52 32 55 33 56 34 57 35 58 36 59 38 60 37 64
REMARK H PARENT 26 4 6 9 17 14 21 17 21 18 23 21 30 37 41 42 50 47 46 53 46 54
REMARK H PARENT 35 61 38 62 38 63 37 65
ROOT
ATOM      1  C   LEU A   3      20.060  10.078  -6.484  1.00  0.00     0.243 C 
ATOM      2  O   LEU A   3      20.180   9.153  -5.634  1.00  0.00    -0.273 OA
ATOM      3  N   GLY A   4      20.561   9.914  -7.799  1.00  0.00    -0.345 N 
ATOM      4  H   UNL     1      20.396  10.662  -8.511  1.00  0.00     0.164 HD
ENDROOT
BRANCH   1   5
ATOM      5  CA  LEU A   3      19.344  11.349  -6.148  1.00  0.00     0.171 C 
BRANCH   5   6
ATOM      6  N   LEU A   3      18.085  11.015  -5.540  1.00  0.00    -0.343 N 
ATOM      7  C   PHE A   2      16.889  11.743  -5.775  1.00  0.00     0.243 C 
ATOM      8  O   PHE A   2      16.908  12.794  -6.473  1.00  0.00    -0.273 OA
ATOM      9  H   UNL     1      18.158  10.377  -4.724  1.00  0.00     0.164 HD
BRANCH   7  10
ATOM     10  CA  PHE A   2      15.654  11.312  -5.056  1.00  0.00     0.175 C 
BRANCH  10  11
ATOM     11  N   PHE A   2      14.458  11.739  -5.768  1.00  0.00    -0.343 N 
ATOM     12  C   SER A   1      13.918  13.048  -5.632  1.00  0.00     0.239 C 
ATOM     13  O   SER A   1      14.448  13.865  -4.831  1.00  0.00    -0.273 OA
ATOM     14  H   UNL     1      13.877  11.000  -6.221  1.00  0.00     0.164 HD
BRANCH  12  15
ATOM     15  CA  SER A   1      12.662  13.411  -6.387  1.00  0.00     0.167 C 
BRANCH  15  16
ATOM     16  N   SER A   1      12.458  14.861  -6.397  1.00  0.00    -0.318 NA
ATOM     17  H   UNL     1      13.318  15.336  -6.757  1.00  0.00     0.119 HD
ATOM     18  H   UNL     1      12.292  15.191  -5.418  1.00  0.00     0.119 HD
ENDBRANCH  15  16
BRANCH  15  19
ATOM     19  CB  SER A   1      12.690  12.888  -7.840  1.00  0.00     0.184 C 
BRANCH  19  20
ATOM     20  OG  SER A   1      11.437  13.050  -8.444  1.00  0.00    -0.394 OA
ATOM     21  H   UNL     1      11.386  13.993  -8.750  1.00  0.00     0.210 HD
ENDBRANCH  19  20
ENDBRANCH  15  19
ENDBRANCH  12  15
ENDBRANCH  10  11
BRANCH  10  22
ATOM     22  CB  PHE A   2      15.611   9.772  -4.879  1.00  0.00     0.070 C 
BRANCH  22  23
ATOM     23  CG  PHE A   2      14.435   9.292  -4.092  1.00  0.00    -0.045 A 
ATOM     24  CD1 PHE A   2      13.898  10.048  -3.033  1.00  0.00     0.004 A 
ATOM     25  CD2 PHE A   2      13.964   7.991  -4.310  1.00  0.00     0.004 A 
ATOM     26  CE1 PHE A   2      12.866   9.535  -2.258  1.00  0.00     0.000 A 
ATOM     27  CE2 PHE A   2      12.937   7.477  -3.520  1.00  0.00     0.000 A 
ATOM     28  CZ  PHE A   2      12.384   8.252  -2.500  1.00  0.00     0.000 A 
ENDBRANCH  22  23
ENDBRANCH  10  22
ENDBRANCH   7  10
ENDBRANCH   5   6
BRANCH   5  29
ATOM     29  CB  LEU A   3      20.165  12.249  -5.216  1.00  0.00     0.038 C 
BRANCH  29  30
ATOM     30  CG  LEU A   3      20.417  11.677  -3.792  1.00  0.00    -0.015 C 
ATOM     31  CD1 LEU A   3      21.819  12.065  -3.316  1.00  0.00     0.007 C 
ATOM     32  CD2 LEU A   3      19.368  12.167  -2.782  1.00  0.00     0.007 C 
ENDBRANCH  29  30
ENDBRANCH   5  29
ENDBRANCH   1   5
BRANCH   3  33
ATOM     33  CA  GLY A   4      21.333   8.757  -8.203  1.00  0.00     0.216 C 
BRANCH  33  34
ATOM     34  C   GLY A   4      22.707   9.204  -8.539  1.00  0.00     0.240 C 
ATOM     35  N   ARG A   5      23.806   8.709  -7.786  1.00  0.00    -0.343 N 
ATOM     36  O   GLY A   4      22.886  10.030  -9.475  1.00  0.00    -0.273 OA
ATOM     37  H   UNL     1      23.638   7.992  -7.043  1.00  0.00     0.164 HD
BRANCH  35  38
ATOM     38  CA  ARG A   5      25.174   9.113  -8.065  1.00  0.00     0.171 C 
BRANCH  38  39
ATOM     39  C   ARG A   5      25.895   7.965  -8.682  1.00  0.00     0.243 C 
ATOM     40  N   GLN A   6      25.925   7.881 -10.100  1.00  0.00    -0.341 N 
ATOM     41  O   ARG A   5      26.442   7.080  -7.971  1.00  0.00    -0.273 OA
ATOM     42  H   UNL     1      25.603   8.719 -10.633  1.00  0.00     0.164 HD
BRANCH  40  43
ATOM     43  CA  GLN A   6      26.538   6.768 -10.815  1.00  0.00     0.192 C 
BRANCH  43  44
ATOM     44  C   GLN A   6      27.987   6.643 -10.426  1.00  0.00     0.326 C 
ATOM     45  O   GLN A   6      28.796   7.576 -10.678  1.00  0.00    -0.250 OA
BRANCH  44  46
ATOM     46  OXT GLN A   6      28.436   5.490  -9.790  1.00  0.00    -0.480 OA
ATOM     47  H   UNL     1      29.407   5.389  -9.521  1.00  0.00     0.296 HD
ENDBRANCH  44  46
ENDBRANCH  43  44
BRANCH  43  48
ATOM     48  CB  GLN A   6      26.423   6.989 -12.334  1.00  0.00     0.047 C 
BRANCH  48  49
ATOM     49  CG  GLN A   6      24.967   7.132 -12.805  1.00  0.00     0.102 C 
BRANCH  49  50
ATOM     50  CD  GLN A   6      24.905   7.163 -14.302  1.00  0.00     0.217 C 
ATOM     51  NE2 GLN A   6      25.148   8.379 -15.010  1.00  0.00    -0.370 N 
ATOM     52  OE1 GLN A   6      24.675   6.102 -14.942  1.00  0.00    -0.275 OA
ATOM     53  H   UNL     1      25.362   9.261 -14.494  1.00  0.00     0.159 HD
ATOM     54  H   UNL     1      25.118   8.396 -16.053  1.00  0.00     0.159 HD
ENDBRANCH  49  50
ENDBRANCH  48  49
ENDBRANCH  43  48
ENDBRANCH  40  43
ENDBRANCH  38  39
BRANCH  38  55
ATOM     55  CB  ARG A   5      25.851   9.596  -6.787  1.00  0.00     0.037 C 
BRANCH  55  56
ATOM     56  CG  ARG A   5      25.162  10.857  -6.268  1.00  0.00     0.024 C 
BRANCH  56  57
ATOM     57  CD  ARG A   5      25.839  11.390  -5.013  1.00  0.00     0.116 C 
BRANCH  57  58
ATOM     58  NE  ARG A   5      25.377  10.686  -3.819  1.00  0.00    -0.357 N 
ATOM     59  CZ  ARG A   5      25.469  11.282  -2.526  1.00  0.00     0.185 C 
ATOM     60  NH2 ARG A   5      26.107  12.546  -2.352  1.00  0.00    -0.370 N 
ATOM     61  H   UNL     1      24.893   9.764  -3.910  1.00  0.00     0.163 HD
ATOM     62  H   UNL     1      26.080  13.024  -1.423  1.00  0.00     0.159 HD
ATOM     63  H   UNL     1      26.697  12.982  -3.093  1.00  0.00     0.159 HD
BRANCH  59  64
ATOM     64  NH1 ARG A   5      24.954  10.672  -1.506  1.00  0.00    -0.270 NA
ATOM     65  H   UNL     1      24.995  11.077  -0.544  1.00  0.00     0.191 HD
ENDBRANCH  59  64
ENDBRANCH  57  58
ENDBRANCH  56  57
ENDBRANCH  55  56
ENDBRANCH  38  55
ENDBRANCH  35  38
ENDBRANCH  33  34
ENDBRANCH   3  33
TORSDOF 27
