REMARK SMILES CC(C)C[C@H](NC(=O)[C@H](Cc1c[nH]cn1)NC(=O)[C@H](Cc1ccccc1)NC(=O)[C@@H](N)CO)C(=O)N[C@@H](CCCCN)C(=O)N[C@@H](CC(N)=O)C(=O)O
REMARK SMILES IDX 7 1 8 2 6 3 9 5 16 6 17 7 18 8 19 10 27 11 28 12 29 13 30 15
REMARK SMILES IDX 31 16 32 19 33 20 20 22 21 23 22 24 26 25 23 26 25 27 24 28
REMARK SMILES IDX 10 29 11 30 15 31 12 32 14 33 13 34 5 36 34 37 36 38 35 39
REMARK SMILES IDX 37 41 43 42 45 43 44 44 46 46 51 47 52 48 53 49 47 51 48 52
REMARK SMILES IDX 49 53 50 54 38 57 39 58 40 59 41 60 42 61 4 64 2 65 1 66
REMARK SMILES IDX 3 67
REMARK H PARENT 6 4 16 9 27 14 31 17 31 18 33 21 13 35 36 40 45 45 53 50 49 55
REMARK H PARENT 49 56 42 62 42 63
ROOT
ATOM      1  C   HIS A   3      20.051  10.095  -6.460  1.00  0.00     0.243 C 
ATOM      2  O   HIS A   3      20.168   9.181  -5.596  1.00  0.00    -0.273 OA
ATOM      3  N   LEU A   4      20.563   9.921  -7.772  1.00  0.00    -0.342 N 
ATOM      4  H   UNL     1      20.396  10.659  -8.494  1.00  0.00     0.164 HD
ENDROOT
BRANCH   1   5
ATOM      5  CA  HIS A   3      19.347  11.367  -6.132  1.00  0.00     0.177 C 
BRANCH   5   6
ATOM      6  N   HIS A   3      18.090  11.044  -5.509  1.00  0.00    -0.342 N 
ATOM      7  C   PHE A   2      16.888  11.749  -5.774  1.00  0.00     0.243 C 
ATOM      8  O   PHE A   2      16.903  12.793  -6.482  1.00  0.00    -0.273 OA
ATOM      9  H   UNL     1      18.164  10.481  -4.637  1.00  0.00     0.164 HD
BRANCH   7  10
ATOM     10  CA  PHE A   2      15.653  11.313  -5.059  1.00  0.00     0.175 C 
BRANCH  10  11
ATOM     11  N   PHE A   2      14.456  11.740  -5.769  1.00  0.00    -0.343 N 
ATOM     12  C   SER A   1      13.917  13.049  -5.633  1.00  0.00     0.239 C 
ATOM     13  O   SER A   1      14.448  13.866  -4.831  1.00  0.00    -0.273 OA
ATOM     14  H   UNL     1      13.872  11.001  -6.218  1.00  0.00     0.164 HD
BRANCH  12  15
ATOM     15  CA  SER A   1      12.661  13.412  -6.387  1.00  0.00     0.167 C 
BRANCH  15  16
ATOM     16  N   SER A   1      12.457  14.862  -6.398  1.00  0.00    -0.318 NA
ATOM     17  H   UNL     1      12.292  15.192  -5.418  1.00  0.00     0.119 HD
ATOM     18  H   UNL     1      13.318  15.337  -6.758  1.00  0.00     0.119 HD
ENDBRANCH  15  16
BRANCH  15  19
ATOM     19  CB  SER A   1      12.690  12.888  -7.841  1.00  0.00     0.184 C 
BRANCH  19  20
ATOM     20  OG  SER A   1      11.437  13.050  -8.444  1.00  0.00    -0.394 OA
ATOM     21  H   UNL     1      11.385  13.993  -8.750  1.00  0.00     0.210 HD
ENDBRANCH  19  20
ENDBRANCH  15  19
ENDBRANCH  12  15
ENDBRANCH  10  11
BRANCH  10  22
ATOM     22  CB  PHE A   2      15.613   9.773  -4.889  1.00  0.00     0.070 C 
BRANCH  22  23
ATOM     23  CG  PHE A   2      14.443   9.290  -4.091  1.00  0.00    -0.045 A 
ATOM     24  CD1 PHE A   2      13.903  10.047  -3.033  1.00  0.00     0.004 A 
ATOM     25  CD2 PHE A   2      13.968   7.990  -4.310  1.00  0.00     0.004 A 
ATOM     26  CE1 PHE A   2      12.869   9.536  -2.260  1.00  0.00     0.000 A 
ATOM     27  CE2 PHE A   2      12.939   7.477  -3.521  1.00  0.00     0.000 A 
ATOM     28  CZ  PHE A   2      12.386   8.253  -2.502  1.00  0.00     0.000 A 
ENDBRANCH  22  23
ENDBRANCH  10  22
ENDBRANCH   7  10
ENDBRANCH   5   6
BRANCH   5  29
ATOM     29  CB  HIS A   3      20.181  12.261  -5.202  1.00  0.00     0.093 C 
BRANCH  29  30
ATOM     30  CG  HIS A   3      20.402  11.677  -3.831  1.00  0.00     0.061 A 
ATOM     31  ND1 HIS A   3      21.405  10.832  -3.521  1.00  0.00    -0.242 NA
ATOM     32  CD2 HIS A   3      19.608  11.886  -2.724  1.00  0.00     0.107 A 
ATOM     33  CE1 HIS A   3      21.197  10.546  -2.218  1.00  0.00     0.196 A 
ATOM     34  NE2 HIS A   3      20.117  11.170  -1.712  1.00  0.00    -0.351 N 
ATOM     35  H   UNL     1      19.750  11.106  -0.737  1.00  0.00     0.167 HD
ENDBRANCH  29  30
ENDBRANCH   5  29
ENDBRANCH   1   5
BRANCH   3  36
ATOM     36  CA  LEU A   4      21.348   8.760  -8.138  1.00  0.00     0.171 C 
BRANCH  36  37
ATOM     37  C   LEU A   4      22.713   9.218  -8.520  1.00  0.00     0.243 C 
ATOM     38  N   LYS A   5      23.823   8.729  -7.781  1.00  0.00    -0.343 N 
ATOM     39  O   LEU A   4      22.876  10.032  -9.469  1.00  0.00    -0.273 OA
ATOM     40  H   UNL     1      23.670   8.040  -7.009  1.00  0.00     0.164 HD
BRANCH  38  41
ATOM     41  CA  LYS A   5      25.185   9.132  -8.072  1.00  0.00     0.171 C 
BRANCH  41  42
ATOM     42  C   LYS A   5      25.898   7.974  -8.687  1.00  0.00     0.243 C 
ATOM     43  N   ASN A   6      25.912   7.869 -10.103  1.00  0.00    -0.341 N 
ATOM     44  O   LYS A   5      26.444   7.091  -7.971  1.00  0.00    -0.273 OA
ATOM     45  H   UNL     1      25.489   8.652 -10.652  1.00  0.00     0.164 HD
BRANCH  43  46
ATOM     46  CA  ASN A   6      26.540   6.753 -10.803  1.00  0.00     0.201 C 
BRANCH  46  47
ATOM     47  C   ASN A   6      27.991   6.643 -10.415  1.00  0.00     0.326 C 
ATOM     48  O   ASN A   6      28.794   7.579 -10.677  1.00  0.00    -0.250 OA
BRANCH  47  49
ATOM     49  OXT ASN A   6      28.448   5.500  -9.766  1.00  0.00    -0.480 OA
ATOM     50  H   UNL     1      29.421   5.410  -9.497  1.00  0.00     0.296 HD
ENDBRANCH  47  49
ENDBRANCH  46  47
BRANCH  46  51
ATOM     51  CB  ASN A   6      26.424   6.947 -12.323  1.00  0.00     0.136 C 
BRANCH  51  52
ATOM     52  CG  ASN A   6      25.010   7.181 -12.773  1.00  0.00     0.220 C 
ATOM     53  ND2 ASN A   6      24.753   8.090 -13.834  1.00  0.00    -0.370 N 
ATOM     54  OD1 ASN A   6      24.052   6.558 -12.243  1.00  0.00    -0.275 OA
ATOM     55  H   UNL     1      23.774   8.258 -14.157  1.00  0.00     0.159 HD
ATOM     56  H   UNL     1      25.533   8.600 -14.306  1.00  0.00     0.159 HD
ENDBRANCH  51  52
ENDBRANCH  46  51
ENDBRANCH  43  46
ENDBRANCH  41  42
BRANCH  41  57
ATOM     57  CB  LYS A   5      25.871   9.610  -6.797  1.00  0.00     0.035 C 
BRANCH  57  58
ATOM     58  CG  LYS A   5      25.156  10.830  -6.201  1.00  0.00     0.004 C 
BRANCH  58  59
ATOM     59  CD  LYS A   5      25.900  11.385  -4.980  1.00  0.00     0.015 C 
BRANCH  59  60
ATOM     60  CE  LYS A   5      25.897  10.456  -3.756  1.00  0.00     0.077 C 
BRANCH  60  61
ATOM     61  NZ  LYS A   5      24.535  10.176  -3.316  1.00  0.00    -0.330 NA
ATOM     62  H   UNL     1      24.588   9.481  -2.536  1.00  0.00     0.118 HD
ATOM     63  H   UNL     1      24.143  11.054  -2.904  1.00  0.00     0.118 HD
ENDBRANCH  60  61
ENDBRANCH  59  60
ENDBRANCH  58  59
ENDBRANCH  57  58
ENDBRANCH  41  57
ENDBRANCH  38  41
ENDBRANCH  36  37
BRANCH  36  64
ATOM     64  CB  LEU A   4      20.655   7.999  -9.271  1.00  0.00     0.038 C 
BRANCH  64  65
ATOM     65  CG  LEU A   4      21.449   6.771  -9.768  1.00  0.00    -0.015 C 
ATOM     66  CD1 LEU A   4      21.763   5.779  -8.639  1.00  0.00     0.007 C 
ATOM     67  CD2 LEU A   4      20.662   6.067 -10.877  1.00  0.00     0.007 C 
ENDBRANCH  64  65
ENDBRANCH  36  64
ENDBRANCH   3  36
TORSDOF 28
