REMARK SMILES CC(C)C[C@H](NC(=O)[C@H](Cc1c[nH]cn1)NC(=O)[C@H](Cc1ccccc1)NC(=O)CN)C(=O)N[C@@H](CCCNC(=N)N)C(=O)N[C@@H](CC(N)=O)C(=O)O
REMARK SMILES IDX 5 1 6 2 7 3 8 4 9 6 16 7 17 8 18 9 19 11 27 12 28 13 29 14
REMARK SMILES IDX 30 16 31 17 20 20 21 21 22 22 26 23 23 24 25 25 24 26 10 27
REMARK SMILES IDX 11 28 15 29 12 30 14 31 13 32 32 34 34 35 33 36 35 38 43 39
REMARK SMILES IDX 45 40 44 41 46 43 51 44 52 45 53 46 47 48 48 49 49 50 50 51
REMARK SMILES IDX 36 54 37 55 38 56 39 57 40 58 42 59 41 63 4 65 2 66 1 67
REMARK SMILES IDX 3 68
REMARK H PARENT 6 5 16 10 27 15 31 18 31 19 13 33 34 37 45 42 53 47 49 52
REMARK H PARENT 49 53 39 60 42 61 42 62 41 64
ROOT
ATOM      1  CA  LEU A   4      21.347   8.760  -8.138  1.00  0.00     0.171 C 
ENDROOT
BRANCH   1   2
ATOM      2  N   LEU A   4      20.563   9.921  -7.770  1.00  0.00    -0.342 N 
ATOM      3  C   HIS A   3      20.051  10.095  -6.457  1.00  0.00     0.243 C 
ATOM      4  O   HIS A   3      20.171   9.183  -5.593  1.00  0.00    -0.273 OA
ATOM      5  H   UNL     1      20.395  10.659  -8.492  1.00  0.00     0.164 HD
BRANCH   3   6
ATOM      6  CA  HIS A   3      19.346  11.366  -6.129  1.00  0.00     0.177 C 
BRANCH   6   7
ATOM      7  N   HIS A   3      18.087  11.042  -5.508  1.00  0.00    -0.342 N 
ATOM      8  C   PHE A   2      16.889  11.751  -5.779  1.00  0.00     0.243 C 
ATOM      9  O   PHE A   2      16.912  12.797  -6.484  1.00  0.00    -0.273 OA
ATOM     10  H   UNL     1      18.156  10.480  -4.634  1.00  0.00     0.164 HD
BRANCH   8  11
ATOM     11  CA  PHE A   2      15.642  11.319  -5.083  1.00  0.00     0.175 C 
BRANCH  11  12
ATOM     12  N   PHE A   2      14.464  11.769  -5.817  1.00  0.00    -0.343 N 
ATOM     13  C   GLY A   1      13.902  13.060  -5.617  1.00  0.00     0.234 C 
ATOM     14  O   GLY A   1      14.432  13.863  -4.802  1.00  0.00    -0.274 OA
ATOM     15  H   UNL     1      14.069  11.161  -6.570  1.00  0.00     0.164 HD
BRANCH  13  16
ATOM     16  CA  GLY A   1      12.656  13.428  -6.360  1.00  0.00     0.178 C 
BRANCH  16  17
ATOM     17  N   GLY A   1      12.484  14.875  -6.399  1.00  0.00    -0.322 NA
ATOM     18  H   UNL     1      12.192  15.196  -5.447  1.00  0.00     0.119 HD
ATOM     19  H   UNL     1      11.682  15.082  -7.037  1.00  0.00     0.119 HD
ENDBRANCH  16  17
ENDBRANCH  13  16
ENDBRANCH  11  12
BRANCH  11  20
ATOM     20  CB  PHE A   2      15.589   9.781  -4.920  1.00  0.00     0.070 C 
BRANCH  20  21
ATOM     21  CG  PHE A   2      14.433   9.296  -4.102  1.00  0.00    -0.045 A 
ATOM     22  CD1 PHE A   2      13.900  10.051  -3.040  1.00  0.00     0.004 A 
ATOM     23  CD2 PHE A   2      13.963   7.992  -4.313  1.00  0.00     0.004 A 
ATOM     24  CE1 PHE A   2      12.872   9.538  -2.260  1.00  0.00     0.000 A 
ATOM     25  CE2 PHE A   2      12.940   7.478  -3.518  1.00  0.00     0.000 A 
ATOM     26  CZ  PHE A   2      12.389   8.254  -2.499  1.00  0.00     0.000 A 
ENDBRANCH  20  21
ENDBRANCH  11  20
ENDBRANCH   8  11
ENDBRANCH   6   7
BRANCH   6  27
ATOM     27  CB  HIS A   3      20.174  12.264  -5.200  1.00  0.00     0.093 C 
BRANCH  27  28
ATOM     28  CG  HIS A   3      20.428  11.671  -3.838  1.00  0.00     0.061 A 
ATOM     29  ND1 HIS A   3      21.499  10.907  -3.539  1.00  0.00    -0.242 NA
ATOM     30  CD2 HIS A   3      19.628  11.812  -2.726  1.00  0.00     0.107 A 
ATOM     31  CE1 HIS A   3      21.321  10.597  -2.237  1.00  0.00     0.196 A 
ATOM     32  NE2 HIS A   3      20.198  11.131  -1.721  1.00  0.00    -0.351 N 
ATOM     33  H   UNL     1      19.844  11.034  -0.744  1.00  0.00     0.167 HD
ENDBRANCH  27  28
ENDBRANCH   6  27
ENDBRANCH   3   6
ENDBRANCH   1   2
BRANCH   1  34
ATOM     34  C   LEU A   4      22.712   9.216  -8.519  1.00  0.00     0.243 C 
ATOM     35  N   ARG A   5      23.822   8.720  -7.785  1.00  0.00    -0.343 N 
ATOM     36  O   LEU A   4      22.876  10.032  -9.467  1.00  0.00    -0.273 OA
ATOM     37  H   UNL     1      23.667   8.030  -7.015  1.00  0.00     0.164 HD
BRANCH  35  38
ATOM     38  CA  ARG A   5      25.185   9.122  -8.073  1.00  0.00     0.171 C 
BRANCH  38  39
ATOM     39  C   ARG A   5      25.900   7.968  -8.685  1.00  0.00     0.243 C 
ATOM     40  N   ASN A   6      25.913   7.864 -10.102  1.00  0.00    -0.341 N 
ATOM     41  O   ARG A   5      26.447   7.087  -7.969  1.00  0.00    -0.273 OA
ATOM     42  H   UNL     1      25.489   8.647 -10.651  1.00  0.00     0.164 HD
BRANCH  40  43
ATOM     43  CA  ASN A   6      26.542   6.751 -10.804  1.00  0.00     0.201 C 
BRANCH  43  44
ATOM     44  C   ASN A   6      27.993   6.642 -10.416  1.00  0.00     0.326 C 
ATOM     45  O   ASN A   6      28.794   7.579 -10.677  1.00  0.00    -0.250 OA
BRANCH  44  46
ATOM     46  OXT ASN A   6      28.451   5.499  -9.768  1.00  0.00    -0.480 OA
ATOM     47  H   UNL     1      29.424   5.409  -9.499  1.00  0.00     0.296 HD
ENDBRANCH  44  46
ENDBRANCH  43  44
BRANCH  43  48
ATOM     48  CB  ASN A   6      26.424   6.947 -12.323  1.00  0.00     0.136 C 
BRANCH  48  49
ATOM     49  CG  ASN A   6      25.010   7.181 -12.773  1.00  0.00     0.220 C 
ATOM     50  ND2 ASN A   6      24.753   8.090 -13.833  1.00  0.00    -0.370 N 
ATOM     51  OD1 ASN A   6      24.053   6.558 -12.243  1.00  0.00    -0.275 OA
ATOM     52  H   UNL     1      25.533   8.600 -14.306  1.00  0.00     0.159 HD
ATOM     53  H   UNL     1      23.775   8.258 -14.156  1.00  0.00     0.159 HD
ENDBRANCH  48  49
ENDBRANCH  43  48
ENDBRANCH  40  43
ENDBRANCH  38  39
BRANCH  38  54
ATOM     54  CB  ARG A   5      25.862   9.605  -6.795  1.00  0.00     0.037 C 
BRANCH  54  55
ATOM     55  CG  ARG A   5      25.165  10.859  -6.270  1.00  0.00     0.024 C 
BRANCH  55  56
ATOM     56  CD  ARG A   5      25.840  11.390  -5.013  1.00  0.00     0.116 C 
BRANCH  56  57
ATOM     57  NE  ARG A   5      25.375  10.687  -3.820  1.00  0.00    -0.357 N 
ATOM     58  CZ  ARG A   5      25.468  11.282  -2.526  1.00  0.00     0.185 C 
ATOM     59  NH2 ARG A   5      26.108  12.545  -2.351  1.00  0.00    -0.370 N 
ATOM     60  H   UNL     1      24.891   9.765  -3.912  1.00  0.00     0.163 HD
ATOM     61  H   UNL     1      26.083  13.022  -1.422  1.00  0.00     0.159 HD
ATOM     62  H   UNL     1      26.698  12.981  -3.092  1.00  0.00     0.159 HD
BRANCH  58  63
ATOM     63  NH1 ARG A   5      24.955  10.671  -1.506  1.00  0.00    -0.270 NA
ATOM     64  H   UNL     1      24.997  11.075  -0.544  1.00  0.00     0.191 HD
ENDBRANCH  58  63
ENDBRANCH  56  57
ENDBRANCH  55  56
ENDBRANCH  54  55
ENDBRANCH  38  54
ENDBRANCH  35  38
ENDBRANCH   1  34
BRANCH   1  65
ATOM     65  CB  LEU A   4      20.654   7.999  -9.270  1.00  0.00     0.038 C 
BRANCH  65  66
ATOM     66  CG  LEU A   4      21.448   6.771  -9.768  1.00  0.00    -0.015 C 
ATOM     67  CD1 LEU A   4      21.762   5.778  -8.639  1.00  0.00     0.007 C 
ATOM     68  CD2 LEU A   4      20.661   6.068 -10.877  1.00  0.00     0.007 C 
ENDBRANCH  65  66
ENDBRANCH   1  65
TORSDOF 26
