REMARK SMILES N=C(N)NCCC[C@H](NC(=O)[C@H](Cc1c[nH]cn1)NC(=O)CNC(=O)[C@H](Cc1ccccc1)NC(=O)[C@@H](N)CO)C(=O)N[C@@H](CC(N)=O)C(=O)O
REMARK SMILES IDX 20 1 21 2 19 3 22 5 23 6 24 7 25 8 26 10 34 11 35 12 36 13
REMARK SMILES IDX 37 15 38 16 39 19 40 20 27 22 28 23 29 24 33 25 30 26 32 27
REMARK SMILES IDX 31 28 12 29 10 30 9 31 11 32 8 34 41 35 43 36 42 37 44 39
REMARK SMILES IDX 49 40 50 41 51 42 45 44 46 45 47 46 48 47 7 50 6 51 5 52
REMARK SMILES IDX 4 53 2 54 3 55 1 59 13 61 14 62 18 63 15 64 17 65 16 66
REMARK H PARENT 19 4 23 9 34 14 38 17 38 18 40 21 9 33 43 38 51 43 47 48 47 49
REMARK H PARENT 4 56 3 57 3 58 1 60 16 67
ROOT
ATOM      1  C   GLY A   3      20.044  10.094  -6.470  1.00  0.00     0.240 C 
ATOM      2  O   GLY A   3      20.178   9.200  -5.588  1.00  0.00    -0.273 OA
ATOM      3  N   HIS A   4      20.554   9.905  -7.781  1.00  0.00    -0.342 N 
ATOM      4  H   UNL     1      20.383  10.638  -8.508  1.00  0.00     0.164 HD
ENDROOT
BRANCH   1   5
ATOM      5  CA  GLY A   3      19.354  11.372  -6.157  1.00  0.00     0.216 C 
BRANCH   5   6
ATOM      6  N   GLY A   3      18.114  11.082  -5.480  1.00  0.00    -0.345 N 
ATOM      7  C   PHE A   2      16.899  11.757  -5.772  1.00  0.00     0.243 C 
ATOM      8  O   PHE A   2      16.904  12.792  -6.493  1.00  0.00    -0.273 OA
ATOM      9  H   UNL     1      18.216  10.608  -4.555  1.00  0.00     0.164 HD
BRANCH   7  10
ATOM     10  CA  PHE A   2      15.660  11.317  -5.060  1.00  0.00     0.175 C 
BRANCH  10  11
ATOM     11  N   PHE A   2      14.462  11.741  -5.771  1.00  0.00    -0.343 N 
ATOM     12  C   SER A   1      13.916  13.049  -5.637  1.00  0.00     0.239 C 
ATOM     13  O   SER A   1      14.442  13.869  -4.835  1.00  0.00    -0.273 OA
ATOM     14  H   UNL     1      13.882  11.000  -6.221  1.00  0.00     0.164 HD
BRANCH  12  15
ATOM     15  CA  SER A   1      12.661  13.409  -6.390  1.00  0.00     0.167 C 
BRANCH  15  16
ATOM     16  N   SER A   1      12.475  14.862  -6.375  1.00  0.00    -0.318 NA
ATOM     17  H   UNL     1      11.521  15.088  -6.738  1.00  0.00     0.119 HD
ATOM     18  H   UNL     1      13.174  15.313  -7.010  1.00  0.00     0.119 HD
ENDBRANCH  15  16
BRANCH  15  19
ATOM     19  CB  SER A   1      12.688  12.876  -7.844  1.00  0.00     0.184 C 
BRANCH  19  20
ATOM     20  OG  SER A   1      11.436  13.047  -8.450  1.00  0.00    -0.394 OA
ATOM     21  H   UNL     1      11.448  13.936  -8.892  1.00  0.00     0.210 HD
ENDBRANCH  19  20
ENDBRANCH  15  19
ENDBRANCH  12  15
ENDBRANCH  10  11
BRANCH  10  22
ATOM     22  CB  PHE A   2      15.628   9.779  -4.890  1.00  0.00     0.070 C 
BRANCH  22  23
ATOM     23  CG  PHE A   2      14.456   9.290  -4.088  1.00  0.00    -0.045 A 
ATOM     24  CD1 PHE A   2      13.910  10.048  -3.033  1.00  0.00     0.004 A 
ATOM     25  CD2 PHE A   2      13.977   7.992  -4.311  1.00  0.00     0.004 A 
ATOM     26  CE1 PHE A   2      12.872   9.537  -2.263  1.00  0.00     0.000 A 
ATOM     27  CE2 PHE A   2      12.944   7.479  -3.524  1.00  0.00     0.000 A 
ATOM     28  CZ  PHE A   2      12.389   8.254  -2.506  1.00  0.00     0.000 A 
ENDBRANCH  22  23
ENDBRANCH  10  22
ENDBRANCH   7  10
ENDBRANCH   5   6
ENDBRANCH   1   5
BRANCH   3  29
ATOM     29  CA  HIS A   4      21.343   8.744  -8.150  1.00  0.00     0.177 C 
BRANCH  29  30
ATOM     30  C   HIS A   4      22.710   9.207  -8.523  1.00  0.00     0.243 C 
ATOM     31  N   ARG A   5      23.819   8.710  -7.788  1.00  0.00    -0.343 N 
ATOM     32  O   HIS A   4      22.875  10.031  -9.464  1.00  0.00    -0.273 OA
ATOM     33  H   UNL     1      23.664   7.987  -7.048  1.00  0.00     0.164 HD
BRANCH  31  34
ATOM     34  CA  ARG A   5      25.182   9.118  -8.072  1.00  0.00     0.171 C 
BRANCH  34  35
ATOM     35  C   ARG A   5      25.900   7.967  -8.686  1.00  0.00     0.243 C 
ATOM     36  N   ASN A   6      25.914   7.864 -10.103  1.00  0.00    -0.341 N 
ATOM     37  O   ARG A   5      26.448   7.086  -7.970  1.00  0.00    -0.273 OA
ATOM     38  H   UNL     1      25.490   8.648 -10.651  1.00  0.00     0.164 HD
BRANCH  36  39
ATOM     39  CA  ASN A   6      26.542   6.751 -10.805  1.00  0.00     0.201 C 
BRANCH  39  40
ATOM     40  C   ASN A   6      27.993   6.642 -10.416  1.00  0.00     0.326 C 
ATOM     41  O   ASN A   6      28.794   7.578 -10.676  1.00  0.00    -0.250 OA
BRANCH  40  42
ATOM     42  OXT ASN A   6      28.451   5.498  -9.769  1.00  0.00    -0.480 OA
ATOM     43  H   UNL     1      29.423   5.408  -9.499  1.00  0.00     0.296 HD
ENDBRANCH  40  42
ENDBRANCH  39  40
BRANCH  39  44
ATOM     44  CB  ASN A   6      26.426   6.948 -12.324  1.00  0.00     0.136 C 
BRANCH  44  45
ATOM     45  CG  ASN A   6      25.013   7.184 -12.775  1.00  0.00     0.220 C 
ATOM     46  ND2 ASN A   6      24.757   8.092 -13.836  1.00  0.00    -0.370 N 
ATOM     47  OD1 ASN A   6      24.056   6.565 -12.243  1.00  0.00    -0.275 OA
ATOM     48  H   UNL     1      23.778   8.260 -14.159  1.00  0.00     0.159 HD
ATOM     49  H   UNL     1      25.537   8.600 -14.310  1.00  0.00     0.159 HD
ENDBRANCH  44  45
ENDBRANCH  39  44
ENDBRANCH  36  39
ENDBRANCH  34  35
BRANCH  34  50
ATOM     50  CB  ARG A   5      25.858   9.601  -6.794  1.00  0.00     0.037 C 
BRANCH  50  51
ATOM     51  CG  ARG A   5      25.166  10.859  -6.272  1.00  0.00     0.024 C 
BRANCH  51  52
ATOM     52  CD  ARG A   5      25.841  11.390  -5.015  1.00  0.00     0.116 C 
BRANCH  52  53
ATOM     53  NE  ARG A   5      25.378  10.684  -3.823  1.00  0.00    -0.357 N 
ATOM     54  CZ  ARG A   5      25.469  11.279  -2.527  1.00  0.00     0.185 C 
ATOM     55  NH2 ARG A   5      26.106  12.541  -2.350  1.00  0.00    -0.370 N 
ATOM     56  H   UNL     1      24.904   9.757  -3.921  1.00  0.00     0.163 HD
ATOM     57  H   UNL     1      26.693  12.983  -3.091  1.00  0.00     0.159 HD
ATOM     58  H   UNL     1      26.084  13.006  -1.415  1.00  0.00     0.159 HD
BRANCH  54  59
ATOM     59  NH1 ARG A   5      24.959  10.678  -1.500  1.00  0.00    -0.270 NA
ATOM     60  H   UNL     1      24.479   9.755  -1.583  1.00  0.00     0.191 HD
ENDBRANCH  54  59
ENDBRANCH  52  53
ENDBRANCH  51  52
ENDBRANCH  50  51
ENDBRANCH  34  50
ENDBRANCH  31  34
ENDBRANCH  29  30
BRANCH  29  61
ATOM     61  CB  HIS A   4      20.663   7.998  -9.301  1.00  0.00     0.093 C 
BRANCH  61  62
ATOM     62  CG  HIS A   4      21.414   6.769  -9.737  1.00  0.00     0.061 A 
ATOM     63  ND1 HIS A   4      22.261   6.067  -8.955  1.00  0.00    -0.242 NA
ATOM     64  CD2 HIS A   4      21.209   6.094 -10.919  1.00  0.00     0.107 A 
ATOM     65  CE1 HIS A   4      22.580   4.990  -9.702  1.00  0.00     0.196 A 
ATOM     66  NE2 HIS A   4      21.952   4.977 -10.893  1.00  0.00    -0.351 N 
ATOM     67  H   UNL     1      22.021   4.247 -11.635  1.00  0.00     0.167 HD
ENDBRANCH  61  62
ENDBRANCH  29  61
ENDBRANCH   3  29
TORSDOF 26
