REMARK SMILES CC(C)C[C@H](NC(=O)[C@H](CCCCN)NC(=O)[C@H](C)NC(=O)[C@@H](N)CO)C(=O)N[C@@H](CCCNC(=N)N)C(=O)N[C@@H](CC(N)=O)C(=O)O
REMARK SMILES IDX 7 1 8 2 6 3 9 5 15 6 16 7 17 8 18 10 19 11 20 12 21 13 22 14
REMARK SMILES IDX 23 16 24 17 25 20 26 21 10 23 11 24 12 25 13 26 14 27 5 30
REMARK SMILES IDX 27 31 29 32 28 33 30 35 38 36 40 37 39 38 41 40 46 41 47 42
REMARK SMILES IDX 48 43 42 45 43 46 44 47 45 48 31 51 32 52 33 53 34 54 35 55
REMARK SMILES IDX 37 56 36 60 4 62 2 63 1 64 3 65
REMARK H PARENT 6 4 15 9 20 15 24 18 24 19 26 22 14 28 14 29 29 34 40 39 48 44
REMARK H PARENT 44 49 44 50 34 57 37 58 37 59 36 61
ROOT
ATOM      1  C   LYS A   3      20.031  10.075  -6.471  1.00  0.00     0.243 C 
ATOM      2  O   LYS A   3      20.153   9.154  -5.617  1.00  0.00    -0.273 OA
ATOM      3  N   LEU A   4      20.564   9.921  -7.775  1.00  0.00    -0.343 N 
ATOM      4  H   UNL     1      20.405  10.666  -8.492  1.00  0.00     0.164 HD
ENDROOT
BRANCH   1   5
ATOM      5  CA  LYS A   3      19.320  11.341  -6.134  1.00  0.00     0.171 C 
BRANCH   5   6
ATOM      6  N   LYS A   3      18.066  11.021  -5.490  1.00  0.00    -0.343 N 
ATOM      7  C   ALA A   2      16.871  11.747  -5.733  1.00  0.00     0.242 C 
ATOM      8  O   ALA A   2      16.892  12.789  -6.447  1.00  0.00    -0.273 OA
ATOM      9  H   UNL     1      18.106  10.374  -4.673  1.00  0.00     0.164 HD
BRANCH   7  10
ATOM     10  CA  ALA A   2      15.616  11.294  -5.039  1.00  0.00     0.168 C 
ATOM     11  CB  ALA A   2      15.568   9.762  -4.906  1.00  0.00     0.041 C 
BRANCH  10  12
ATOM     12  N   ALA A   2      14.438  11.732  -5.767  1.00  0.00    -0.343 N 
ATOM     13  C   SER A   1      13.913  13.047  -5.635  1.00  0.00     0.239 C 
ATOM     14  O   SER A   1      14.449  13.863  -4.835  1.00  0.00    -0.273 OA
ATOM     15  H   UNL     1      13.849  11.000  -6.221  1.00  0.00     0.164 HD
BRANCH  13  16
ATOM     16  CA  SER A   1      12.659  13.414  -6.389  1.00  0.00     0.167 C 
BRANCH  16  17
ATOM     17  N   SER A   1      12.455  14.863  -6.398  1.00  0.00    -0.318 NA
ATOM     18  H   UNL     1      13.317  15.339  -6.753  1.00  0.00     0.119 HD
ATOM     19  H   UNL     1      12.286  15.191  -5.419  1.00  0.00     0.119 HD
ENDBRANCH  16  17
BRANCH  16  20
ATOM     20  CB  SER A   1      12.689  12.893  -7.844  1.00  0.00     0.184 C 
BRANCH  20  21
ATOM     21  OG  SER A   1      11.435  13.054  -8.447  1.00  0.00    -0.394 OA
ATOM     22  H   UNL     1      10.842  12.356  -8.065  1.00  0.00     0.210 HD
ENDBRANCH  20  21
ENDBRANCH  16  20
ENDBRANCH  13  16
ENDBRANCH  10  12
ENDBRANCH   7  10
ENDBRANCH   5   6
BRANCH   5  23
ATOM     23  CB  LYS A   3      20.179  12.234  -5.237  1.00  0.00     0.035 C 
BRANCH  23  24
ATOM     24  CG  LYS A   3      20.401  11.690  -3.811  1.00  0.00     0.004 C 
BRANCH  24  25
ATOM     25  CD  LYS A   3      21.767  12.131  -3.277  1.00  0.00     0.015 C 
BRANCH  25  26
ATOM     26  CE  LYS A   3      21.930  11.852  -1.777  1.00  0.00     0.077 C 
BRANCH  26  27
ATOM     27  NZ  LYS A   3      20.937  12.579  -0.988  1.00  0.00    -0.330 NA
ATOM     28  H   UNL     1      20.074  11.993  -0.921  1.00  0.00     0.118 HD
ATOM     29  H   UNL     1      21.301  12.660  -0.010  1.00  0.00     0.118 HD
ENDBRANCH  26  27
ENDBRANCH  25  26
ENDBRANCH  24  25
ENDBRANCH  23  24
ENDBRANCH   5  23
ENDBRANCH   1   5
BRANCH   3  30
ATOM     30  CA  LEU A   4      21.349   8.760  -8.143  1.00  0.00     0.171 C 
BRANCH  30  31
ATOM     31  C   LEU A   4      22.714   9.216  -8.523  1.00  0.00     0.243 C 
ATOM     32  N   ARG A   5      23.822   8.721  -7.786  1.00  0.00    -0.343 N 
ATOM     33  O   LEU A   4      22.878  10.033  -9.469  1.00  0.00    -0.273 OA
ATOM     34  H   UNL     1      23.667   8.031  -7.016  1.00  0.00     0.164 HD
BRANCH  32  35
ATOM     35  CA  ARG A   5      25.186   9.122  -8.073  1.00  0.00     0.171 C 
BRANCH  35  36
ATOM     36  C   ARG A   5      25.900   7.968  -8.685  1.00  0.00     0.243 C 
ATOM     37  N   ASN A   6      25.913   7.864 -10.102  1.00  0.00    -0.341 N 
ATOM     38  O   ARG A   5      26.447   7.087  -7.969  1.00  0.00    -0.273 OA
ATOM     39  H   UNL     1      25.488   8.647 -10.651  1.00  0.00     0.164 HD
BRANCH  37  40
ATOM     40  CA  ASN A   6      26.542   6.751 -10.804  1.00  0.00     0.201 C 
BRANCH  40  41
ATOM     41  C   ASN A   6      27.993   6.642 -10.416  1.00  0.00     0.326 C 
ATOM     42  O   ASN A   6      28.794   7.579 -10.677  1.00  0.00    -0.250 OA
BRANCH  41  43
ATOM     43  OXT ASN A   6      28.451   5.499  -9.768  1.00  0.00    -0.480 OA
ATOM     44  H   UNL     1      29.424   5.409  -9.500  1.00  0.00     0.296 HD
ENDBRANCH  41  43
ENDBRANCH  40  41
BRANCH  40  45
ATOM     45  CB  ASN A   6      26.424   6.947 -12.323  1.00  0.00     0.136 C 
BRANCH  45  46
ATOM     46  CG  ASN A   6      25.010   7.180 -12.773  1.00  0.00     0.220 C 
ATOM     47  ND2 ASN A   6      24.753   8.090 -13.833  1.00  0.00    -0.370 N 
ATOM     48  OD1 ASN A   6      24.053   6.558 -12.243  1.00  0.00    -0.275 OA
ATOM     49  H   UNL     1      25.533   8.600 -14.306  1.00  0.00     0.159 HD
ATOM     50  H   UNL     1      23.775   8.258 -14.156  1.00  0.00     0.159 HD
ENDBRANCH  45  46
ENDBRANCH  40  45
ENDBRANCH  37  40
ENDBRANCH  35  36
BRANCH  35  51
ATOM     51  CB  ARG A   5      25.862   9.606  -6.795  1.00  0.00     0.037 C 
BRANCH  51  52
ATOM     52  CG  ARG A   5      25.164  10.860  -6.270  1.00  0.00     0.024 C 
BRANCH  52  53
ATOM     53  CD  ARG A   5      25.838  11.393  -5.014  1.00  0.00     0.116 C 
BRANCH  53  54
ATOM     54  NE  ARG A   5      25.378  10.686  -3.821  1.00  0.00    -0.357 N 
ATOM     55  CZ  ARG A   5      25.479  11.275  -2.526  1.00  0.00     0.185 C 
ATOM     56  NH2 ARG A   5      26.106  12.546  -2.351  1.00  0.00    -0.370 N 
ATOM     57  H   UNL     1      24.896   9.763  -3.914  1.00  0.00     0.163 HD
ATOM     58  H   UNL     1      26.082  13.017  -1.419  1.00  0.00     0.159 HD
ATOM     59  H   UNL     1      26.680  12.994  -3.096  1.00  0.00     0.159 HD
BRANCH  55  60
ATOM     60  NH1 ARG A   5      24.989  10.650  -1.503  1.00  0.00    -0.270 NA
ATOM     61  H   UNL     1      25.042  11.046  -0.538  1.00  0.00     0.191 HD
ENDBRANCH  55  60
ENDBRANCH  53  54
ENDBRANCH  52  53
ENDBRANCH  51  52
ENDBRANCH  35  51
ENDBRANCH  32  35
ENDBRANCH  30  31
BRANCH  30  62
ATOM     62  CB  LEU A   4      20.656   7.999  -9.274  1.00  0.00     0.038 C 
BRANCH  62  63
ATOM     63  CG  LEU A   4      21.448   6.770  -9.770  1.00  0.00    -0.015 C 
ATOM     64  CD1 LEU A   4      21.762   5.778  -8.639  1.00  0.00     0.007 C 
ATOM     65  CD2 LEU A   4      20.661   6.066 -10.878  1.00  0.00     0.007 C 
ENDBRANCH  62  63
ENDBRANCH  30  62
ENDBRANCH   3  30
TORSDOF 29
