REMARK SMILES CC(C)C[C@H](NC(=O)[C@H](CC(N)=O)NC(=O)[C@H](Cc1ccccc1)NC(=O)[C@@H](N)CO)C(=O)N[C@@H](CCCNC(=N)N)C(=O)N[C@@H](Cc1c[nH]cn1)C(=O)O
REMARK SMILES IDX 7 1 8 2 6 3 9 5 14 6 15 7 16 8 17 10 25 11 26 12 27 13 28 15
REMARK SMILES IDX 29 16 30 19 31 20 18 22 19 23 20 24 24 25 21 26 23 27 22 28
REMARK SMILES IDX 10 29 11 30 12 31 13 32 5 35 32 36 34 37 33 38 35 40 43 41
REMARK SMILES IDX 45 42 44 43 46 45 53 46 54 47 55 48 47 50 48 51 52 52 49 53
REMARK SMILES IDX 51 54 50 55 36 57 37 58 38 59 39 60 40 61 42 62 41 66 4 68
REMARK SMILES IDX 2 69 1 70 3 71
REMARK H PARENT 6 4 14 9 25 14 29 17 29 18 31 21 12 33 12 34 34 39 45 44 55 49
REMARK H PARENT 50 56 39 63 42 64 42 65 41 67
ROOT
ATOM      1  C   ASN A   3      20.052  10.096  -6.460  1.00  0.00     0.243 C 
ATOM      2  O   ASN A   3      20.172   9.184  -5.594  1.00  0.00    -0.273 OA
ATOM      3  N   LEU A   4      20.563   9.921  -7.772  1.00  0.00    -0.342 N 
ATOM      4  H   UNL     1      20.395  10.659  -8.494  1.00  0.00     0.164 HD
ENDROOT
BRANCH   1   5
ATOM      5  CA  ASN A   3      19.347  11.368  -6.131  1.00  0.00     0.180 C 
BRANCH   5   6
ATOM      6  N   ASN A   3      18.089  11.044  -5.509  1.00  0.00    -0.342 N 
ATOM      7  C   PHE A   2      16.888  11.750  -5.774  1.00  0.00     0.243 C 
ATOM      8  O   PHE A   2      16.903  12.794  -6.482  1.00  0.00    -0.273 OA
ATOM      9  H   UNL     1      18.165  10.482  -4.636  1.00  0.00     0.164 HD
BRANCH   7  10
ATOM     10  CA  PHE A   2      15.652  11.314  -5.059  1.00  0.00     0.175 C 
BRANCH  10  11
ATOM     11  N   PHE A   2      14.455  11.741  -5.768  1.00  0.00    -0.343 N 
ATOM     12  C   SER A   1      13.916  13.051  -5.637  1.00  0.00     0.239 C 
ATOM     13  O   SER A   1      14.444  13.871  -4.836  1.00  0.00    -0.273 OA
ATOM     14  H   UNL     1      13.866  11.001  -6.211  1.00  0.00     0.164 HD
BRANCH  12  15
ATOM     15  CA  SER A   1      12.662  13.411  -6.389  1.00  0.00     0.167 C 
BRANCH  15  16
ATOM     16  N   SER A   1      12.471  14.862  -6.376  1.00  0.00    -0.318 NA
ATOM     17  H   UNL     1      11.539  15.087  -6.794  1.00  0.00     0.119 HD
ATOM     18  H   UNL     1      13.202  15.317  -6.972  1.00  0.00     0.119 HD
ENDBRANCH  15  16
BRANCH  15  19
ATOM     19  CB  SER A   1      12.687  12.879  -7.844  1.00  0.00     0.184 C 
BRANCH  19  20
ATOM     20  OG  SER A   1      11.437  13.048  -8.451  1.00  0.00    -0.394 OA
ATOM     21  H   UNL     1      10.831  12.368  -8.054  1.00  0.00     0.210 HD
ENDBRANCH  19  20
ENDBRANCH  15  19
ENDBRANCH  12  15
ENDBRANCH  10  11
BRANCH  10  22
ATOM     22  CB  PHE A   2      15.613   9.774  -4.889  1.00  0.00     0.070 C 
BRANCH  22  23
ATOM     23  CG  PHE A   2      14.442   9.290  -4.090  1.00  0.00    -0.045 A 
ATOM     24  CD1 PHE A   2      13.902  10.047  -3.033  1.00  0.00     0.004 A 
ATOM     25  CD2 PHE A   2      13.968   7.990  -4.310  1.00  0.00     0.004 A 
ATOM     26  CE1 PHE A   2      12.868   9.536  -2.260  1.00  0.00     0.000 A 
ATOM     27  CE2 PHE A   2      12.939   7.477  -3.521  1.00  0.00     0.000 A 
ATOM     28  CZ  PHE A   2      12.386   8.252  -2.502  1.00  0.00     0.000 A 
ENDBRANCH  22  23
ENDBRANCH  10  22
ENDBRANCH   7  10
ENDBRANCH   5   6
BRANCH   5  29
ATOM     29  CB  ASN A   3      20.178  12.263  -5.202  1.00  0.00     0.134 C 
BRANCH  29  30
ATOM     30  CG  ASN A   3      20.419  11.673  -3.835  1.00  0.00     0.220 C 
ATOM     31  ND2 ASN A   3      19.496  11.906  -2.771  1.00  0.00    -0.370 N 
ATOM     32  OD1 ASN A   3      21.441  10.965  -3.629  1.00  0.00    -0.275 OA
ATOM     33  H   UNL     1      18.641  12.487  -2.924  1.00  0.00     0.159 HD
ATOM     34  H   UNL     1      19.663  11.491  -1.827  1.00  0.00     0.159 HD
ENDBRANCH  29  30
ENDBRANCH   5  29
ENDBRANCH   1   5
BRANCH   3  35
ATOM     35  CA  LEU A   4      21.348   8.759  -8.139  1.00  0.00     0.171 C 
BRANCH  35  36
ATOM     36  C   LEU A   4      22.713   9.215  -8.520  1.00  0.00     0.243 C 
ATOM     37  N   ARG A   5      23.822   8.720  -7.784  1.00  0.00    -0.343 N 
ATOM     38  O   LEU A   4      22.877  10.031  -9.468  1.00  0.00    -0.273 OA
ATOM     39  H   UNL     1      23.666   8.031  -7.013  1.00  0.00     0.164 HD
BRANCH  37  40
ATOM     40  CA  ARG A   5      25.185   9.121  -8.071  1.00  0.00     0.171 C 
BRANCH  40  41
ATOM     41  C   ARG A   5      25.898   7.966  -8.686  1.00  0.00     0.243 C 
ATOM     42  N   HIS A   6      25.904   7.865 -10.103  1.00  0.00    -0.341 N 
ATOM     43  O   ARG A   5      26.449   7.085  -7.973  1.00  0.00    -0.273 OA
ATOM     44  H   UNL     1      25.479   8.653 -10.643  1.00  0.00     0.164 HD
BRANCH  42  45
ATOM     45  CA  HIS A   6      26.533   6.761 -10.820  1.00  0.00     0.198 C 
BRANCH  45  46
ATOM     46  C   HIS A   6      27.983   6.644 -10.426  1.00  0.00     0.326 C 
ATOM     47  O   HIS A   6      28.790   7.578 -10.680  1.00  0.00    -0.250 OA
BRANCH  46  48
ATOM     48  OXT HIS A   6      28.433   5.496  -9.782  1.00  0.00    -0.480 OA
ATOM     49  H   UNL     1      29.404   5.400  -9.510  1.00  0.00     0.296 HD
ENDBRANCH  46  48
ENDBRANCH  45  46
BRANCH  45  50
ATOM     50  CB  HIS A   6      26.419   6.987 -12.337  1.00  0.00     0.094 C 
BRANCH  50  51
ATOM     51  CG  HIS A   6      24.992   7.145 -12.782  1.00  0.00     0.061 A 
ATOM     52  ND1 HIS A   6      24.411   8.328 -13.066  1.00  0.00    -0.242 NA
ATOM     53  CD2 HIS A   6      24.085   6.124 -12.956  1.00  0.00     0.107 A 
ATOM     54  CE1 HIS A   6      23.151   7.994 -13.415  1.00  0.00     0.196 A 
ATOM     55  NE2 HIS A   6      22.929   6.667 -13.364  1.00  0.00    -0.351 N 
ATOM     56  H   UNL     1      22.044   6.166 -13.598  1.00  0.00     0.167 HD
ENDBRANCH  50  51
ENDBRANCH  45  50
ENDBRANCH  42  45
ENDBRANCH  40  41
BRANCH  40  57
ATOM     57  CB  ARG A   5      25.863   9.604  -6.794  1.00  0.00     0.037 C 
BRANCH  57  58
ATOM     58  CG  ARG A   5      25.166  10.859  -6.269  1.00  0.00     0.024 C 
BRANCH  58  59
ATOM     59  CD  ARG A   5      25.841  11.390  -5.013  1.00  0.00     0.116 C 
BRANCH  59  60
ATOM     60  NE  ARG A   5      25.377  10.687  -3.820  1.00  0.00    -0.357 N 
ATOM     61  CZ  ARG A   5      25.469  11.282  -2.526  1.00  0.00     0.185 C 
ATOM     62  NH2 ARG A   5      26.109  12.546  -2.351  1.00  0.00    -0.370 N 
ATOM     63  H   UNL     1      24.895   9.763  -3.912  1.00  0.00     0.163 HD
ATOM     64  H   UNL     1      26.699  12.981  -3.092  1.00  0.00     0.159 HD
ATOM     65  H   UNL     1      26.083  13.022  -1.422  1.00  0.00     0.159 HD
BRANCH  61  66
ATOM     66  NH1 ARG A   5      24.955  10.671  -1.506  1.00  0.00    -0.270 NA
ATOM     67  H   UNL     1      24.998  11.075  -0.544  1.00  0.00     0.191 HD
ENDBRANCH  61  66
ENDBRANCH  59  60
ENDBRANCH  58  59
ENDBRANCH  57  58
ENDBRANCH  40  57
ENDBRANCH  37  40
ENDBRANCH  35  36
BRANCH  35  68
ATOM     68  CB  LEU A   4      20.657   8.000  -9.273  1.00  0.00     0.038 C 
BRANCH  68  69
ATOM     69  CG  LEU A   4      21.449   6.771  -9.772  1.00  0.00    -0.015 C 
ATOM     70  CD1 LEU A   4      21.767   5.780  -8.641  1.00  0.00     0.007 C 
ATOM     71  CD2 LEU A   4      20.653   6.064 -10.872  1.00  0.00     0.007 C 
ENDBRANCH  68  69
ENDBRANCH  35  68
ENDBRANCH   3  35
TORSDOF 28
