REMARK SMILES CC(C)C[C@H](NC(=O)CNC(=O)[C@H](C)NC(=O)[C@@H](N)CO)C(=O)N[C@@H](CCCNC(=N)N)C(=O)N[C@@H](CC(N)=O)C(=O)O
REMARK SMILES IDX 7 1 8 2 6 3 9 5 10 6 11 7 12 8 13 10 14 11 15 12 16 13 17 14
REMARK SMILES IDX 18 16 19 17 20 20 21 21 5 23 22 24 24 25 23 26 25 28 33 29
REMARK SMILES IDX 35 30 34 31 36 33 41 34 42 35 43 36 37 38 38 39 39 40 40 41
REMARK SMILES IDX 26 44 27 45 28 46 29 47 30 48 32 49 31 53 4 55 2 56 1 57
REMARK SMILES IDX 3 58
REMARK H PARENT 6 4 10 9 15 15 19 18 19 19 21 22 24 27 35 32 43 37 39 42 39 43
REMARK H PARENT 29 50 32 51 32 52 31 54
ROOT
ATOM      1  C   GLY A   3       2.076   1.340  -0.184  1.00  0.00     0.240 C 
ATOM      2  O   GLY A   3       1.692   1.512   1.003  1.00  0.00    -0.273 OA
ATOM      3  N   LEU A   4       1.305   0.535  -1.091  1.00  0.00    -0.343 N 
ATOM      4  H   UNL     1       1.548   0.563  -2.107  1.00  0.00     0.164 HD
ENDROOT
BRANCH   1   5
ATOM      5  CA  GLY A   3       3.386   1.924  -0.622  1.00  0.00     0.216 C 
BRANCH   5   6
ATOM      6  N   GLY A   3       4.483   1.093  -0.134  1.00  0.00    -0.345 N 
ATOM      7  C   ALA A   2       4.740  -0.222  -0.652  1.00  0.00     0.242 C 
ATOM      8  O   ALA A   2       4.181  -0.606  -1.714  1.00  0.00    -0.273 OA
ATOM      9  H   UNL     1       5.053   1.445   0.667  1.00  0.00     0.164 HD
BRANCH   7  10
ATOM     10  CA  ALA A   2       5.657  -1.163   0.081  1.00  0.00     0.168 C 
ATOM     11  CB  ALA A   2       4.999  -1.632   1.382  1.00  0.00     0.041 C 
BRANCH  10  12
ATOM     12  N   ALA A   2       6.935  -0.504   0.358  1.00  0.00    -0.343 N 
ATOM     13  C   SER A   1       7.896  -0.247  -0.676  1.00  0.00     0.239 C 
ATOM     14  O   SER A   1       7.692  -0.671  -1.847  1.00  0.00    -0.273 OA
ATOM     15  H   UNL     1       7.132  -0.150   1.323  1.00  0.00     0.164 HD
BRANCH  13  16
ATOM     16  CA  SER A   1       9.118   0.589  -0.376  1.00  0.00     0.167 C 
BRANCH  16  17
ATOM     17  N   SER A   1      10.306   0.084  -1.070  1.00  0.00    -0.318 NA
ATOM     18  H   UNL     1      10.138   0.064  -2.103  1.00  0.00     0.119 HD
ATOM     19  H   UNL     1      10.478  -0.903  -0.763  1.00  0.00     0.119 HD
ENDBRANCH  16  17
BRANCH  16  20
ATOM     20  CB  SER A   1       8.874   2.067  -0.725  1.00  0.00     0.184 C 
BRANCH  20  21
ATOM     21  OG  SER A   1       8.660   2.239  -2.102  1.00  0.00    -0.394 OA
ATOM     22  H   UNL     1       7.693   2.082  -2.263  1.00  0.00     0.210 HD
ENDBRANCH  20  21
ENDBRANCH  16  20
ENDBRANCH  13  16
ENDBRANCH  10  12
ENDBRANCH   7  10
ENDBRANCH   5   6
ENDBRANCH   1   5
BRANCH   3  23
ATOM     23  CA  LEU A   4       0.324  -0.464  -0.655  1.00  0.00     0.171 C 
BRANCH  23  24
ATOM     24  C   LEU A   4      -0.866   0.223  -0.027  1.00  0.00     0.243 C 
ATOM     25  N   ARG A   5      -1.895   0.762  -0.869  1.00  0.00    -0.343 N 
ATOM     26  O   LEU A   4      -0.946   0.347   1.225  1.00  0.00    -0.273 OA
ATOM     27  H   UNL     1      -1.740   0.751  -1.903  1.00  0.00     0.164 HD
BRANCH  25  28
ATOM     28  CA  ARG A   5      -3.248   1.033  -0.373  1.00  0.00     0.171 C 
BRANCH  28  29
ATOM     29  C   ARG A   5      -4.094  -0.203  -0.550  1.00  0.00     0.243 C 
ATOM     30  N   ASN A   6      -4.763  -0.791   0.578  1.00  0.00    -0.341 N 
ATOM     31  O   ARG A   5      -4.218  -0.712  -1.699  1.00  0.00    -0.273 OA
ATOM     32  H   UNL     1      -4.626  -0.352   1.521  1.00  0.00     0.164 HD
BRANCH  30  33
ATOM     33  CA  ASN A   6      -5.600  -1.990   0.456  1.00  0.00     0.201 C 
BRANCH  33  34
ATOM     34  C   ASN A   6      -6.535  -2.085   1.633  1.00  0.00     0.326 C 
ATOM     35  O   ASN A   6      -6.079  -2.214   2.802  1.00  0.00    -0.250 OA
BRANCH  34  36
ATOM     36  OXT ASN A   6      -7.909  -2.022   1.428  1.00  0.00    -0.480 OA
ATOM     37  H   UNL     1      -8.552  -2.079   2.207  1.00  0.00     0.296 HD
ENDBRANCH  34  36
ENDBRANCH  33  34
BRANCH  33  38
ATOM     38  CB  ASN A   6      -4.708  -3.244   0.347  1.00  0.00     0.136 C 
BRANCH  38  39
ATOM     39  CG  ASN A   6      -5.475  -4.520   0.118  1.00  0.00     0.220 C 
ATOM     40  ND2 ASN A   6      -4.837  -5.777   0.350  1.00  0.00    -0.370 N 
ATOM     41  OD1 ASN A   6      -6.654  -4.496  -0.329  1.00  0.00    -0.275 OA
ATOM     42  H   UNL     1      -5.353  -6.668   0.174  1.00  0.00     0.159 HD
ATOM     43  H   UNL     1      -3.829  -5.820   0.627  1.00  0.00     0.159 HD
ENDBRANCH  38  39
ENDBRANCH  33  38
ENDBRANCH  30  33
ENDBRANCH  28  29
BRANCH  28  44
ATOM     44  CB  ARG A   5      -3.847   2.235  -1.125  1.00  0.00     0.037 C 
BRANCH  44  45
ATOM     45  CG  ARG A   5      -5.226   2.641  -0.577  1.00  0.00     0.024 C 
BRANCH  45  46
ATOM     46  CD  ARG A   5      -5.791   3.864  -1.312  1.00  0.00     0.116 C 
BRANCH  46  47
ATOM     47  NE  ARG A   5      -4.996   5.062  -1.039  1.00  0.00    -0.357 N 
ATOM     48  CZ  ARG A   5      -4.981   5.769   0.216  1.00  0.00     0.185 C 
ATOM     49  NH2 ARG A   5      -4.031   6.816   0.417  1.00  0.00    -0.370 N 
ATOM     50  H   UNL     1      -4.383   5.417  -1.806  1.00  0.00     0.163 HD
ATOM     51  H   UNL     1      -4.008   7.350   1.315  1.00  0.00     0.159 HD
ATOM     52  H   UNL     1      -3.361   7.080  -0.342  1.00  0.00     0.159 HD
BRANCH  48  53
ATOM     53  NH1 ARG A   5      -5.825   5.498   1.164  1.00  0.00    -0.270 NA
ATOM     54  H   UNL     1      -6.561   4.763   1.090  1.00  0.00     0.191 HD
ENDBRANCH  48  53
ENDBRANCH  46  47
ENDBRANCH  45  46
ENDBRANCH  44  45
ENDBRANCH  28  44
ENDBRANCH  25  28
ENDBRANCH  23  24
BRANCH  23  55
ATOM     55  CB  LEU A   4       0.998  -1.517   0.261  1.00  0.00     0.038 C 
BRANCH  55  56
ATOM     56  CG  LEU A   4       0.291  -2.894   0.279  1.00  0.00    -0.015 C 
ATOM     57  CD1 LEU A   4      -1.086  -2.839   0.955  1.00  0.00     0.007 C 
ATOM     58  CD2 LEU A   4       1.178  -3.921   0.996  1.00  0.00     0.007 C 
ENDBRANCH  55  56
ENDBRANCH  23  55
ENDBRANCH   3  23
TORSDOF 24
