REMARK SMILES N=C(N)NCCC[C@H](NC(=O)CNC(=O)[C@H](Cc1ccc(O)cc1)NC(=O)[C@H](Cc1ccccc1)NC(=O)[C@@H](N)CO)C(=O)N[C@@H](CC(N)=O)C(=O)O
REMARK SMILES IDX 14 1 15 2 13 3 16 5 25 6 26 7 27 8 28 10 36 11 37 12 38 13
REMARK SMILES IDX 39 15 40 16 41 19 42 20 29 22 30 23 31 24 35 25 32 26 34 27
REMARK SMILES IDX 33 28 17 29 18 30 19 31 24 32 20 33 23 34 21 35 22 36 12 38
REMARK SMILES IDX 10 39 9 40 11 41 8 43 43 44 45 45 44 46 46 48 51 49 52 50
REMARK SMILES IDX 53 51 47 53 48 54 49 55 50 56 7 59 6 60 5 61 4 62 2 63 3 64
REMARK SMILES IDX 1 68
REMARK H PARENT 13 4 25 9 36 14 40 17 40 18 42 21 22 37 9 42 45 47 53 52 49 57
REMARK H PARENT 49 58 4 65 3 66 3 67 1 69
ROOT
ATOM      1  C   TYR A   3      20.054  10.083  -6.473  1.00  0.00     0.243 C 
ATOM      2  O   TYR A   3      20.171   9.162  -5.617  1.00  0.00    -0.273 OA
ATOM      3  N   GLY A   4      20.557   9.914  -7.789  1.00  0.00    -0.345 N 
ATOM      4  H   UNL     1      20.393  10.661  -8.501  1.00  0.00     0.164 HD
ENDROOT
BRANCH   1   5
ATOM      5  CA  TYR A   3      19.354  11.360  -6.135  1.00  0.00     0.175 C 
BRANCH   5   6
ATOM      6  N   TYR A   3      18.093  11.039  -5.513  1.00  0.00    -0.342 N 
ATOM      7  C   PHE A   2      16.891  11.748  -5.775  1.00  0.00     0.243 C 
ATOM      8  O   PHE A   2      16.907  12.793  -6.482  1.00  0.00    -0.273 OA
ATOM      9  H   UNL     1      18.167  10.464  -4.649  1.00  0.00     0.164 HD
BRANCH   7  10
ATOM     10  CA  PHE A   2      15.654  11.313  -5.059  1.00  0.00     0.175 C 
BRANCH  10  11
ATOM     11  N   PHE A   2      14.456  11.740  -5.770  1.00  0.00    -0.343 N 
ATOM     12  C   SER A   1      13.915  13.049  -5.636  1.00  0.00     0.239 C 
ATOM     13  O   SER A   1      14.449  13.868  -4.838  1.00  0.00    -0.273 OA
ATOM     14  H   UNL     1      13.870  11.000  -6.214  1.00  0.00     0.164 HD
BRANCH  12  15
ATOM     15  CA  SER A   1      12.655  13.411  -6.385  1.00  0.00     0.167 C 
BRANCH  15  16
ATOM     16  N   SER A   1      12.468  14.863  -6.382  1.00  0.00    -0.318 NA
ATOM     17  H   UNL     1      12.337  15.179  -5.393  1.00  0.00     0.119 HD
ATOM     18  H   UNL     1      11.564  15.087  -6.857  1.00  0.00     0.119 HD
ENDBRANCH  15  16
BRANCH  15  19
ATOM     19  CB  SER A   1      12.696  12.894  -7.842  1.00  0.00     0.184 C 
BRANCH  19  20
ATOM     20  OG  SER A   1      11.440  13.036  -8.447  1.00  0.00    -0.394 OA
ATOM     21  H   UNL     1      11.455  13.890  -8.953  1.00  0.00     0.210 HD
ENDBRANCH  19  20
ENDBRANCH  15  19
ENDBRANCH  12  15
ENDBRANCH  10  11
BRANCH  10  22
ATOM     22  CB  PHE A   2      15.614   9.774  -4.887  1.00  0.00     0.070 C 
BRANCH  22  23
ATOM     23  CG  PHE A   2      14.442   9.291  -4.091  1.00  0.00    -0.045 A 
ATOM     24  CD1 PHE A   2      13.902  10.047  -3.033  1.00  0.00     0.004 A 
ATOM     25  CD2 PHE A   2      13.968   7.990  -4.310  1.00  0.00     0.004 A 
ATOM     26  CE1 PHE A   2      12.869   9.536  -2.260  1.00  0.00     0.000 A 
ATOM     27  CE2 PHE A   2      12.939   7.477  -3.521  1.00  0.00     0.000 A 
ATOM     28  CZ  PHE A   2      12.386   8.253  -2.502  1.00  0.00     0.000 A 
ENDBRANCH  22  23
ENDBRANCH  10  22
ENDBRANCH   7  10
ENDBRANCH   5   6
BRANCH   5  29
ATOM     29  CB  TYR A   3      20.194  12.252  -5.206  1.00  0.00     0.070 C 
BRANCH  29  30
ATOM     30  CG  TYR A   3      20.388  11.682  -3.816  1.00  0.00    -0.045 A 
ATOM     31  CD1 TYR A   3      19.480  12.005  -2.792  1.00  0.00     0.007 A 
ATOM     32  CD2 TYR A   3      21.440  10.793  -3.545  1.00  0.00     0.007 A 
ATOM     33  CE1 TYR A   3      19.610  11.429  -1.525  1.00  0.00     0.046 A 
ATOM     34  CE2 TYR A   3      21.549  10.197  -2.286  1.00  0.00     0.046 A 
ATOM     35  CZ  TYR A   3      20.639  10.518  -1.270  1.00  0.00     0.115 A 
BRANCH  35  36
ATOM     36  OH  TYR A   3      20.747   9.935  -0.010  1.00  0.00    -0.508 OA
ATOM     37  H   UNL     1      21.482   9.272   0.206  1.00  0.00     0.293 HD
ENDBRANCH  35  36
ENDBRANCH  29  30
ENDBRANCH   5  29
ENDBRANCH   1   5
BRANCH   3  38
ATOM     38  CA  GLY A   4      21.331   8.757  -8.193  1.00  0.00     0.216 C 
BRANCH  38  39
ATOM     39  C   GLY A   4      22.705   9.205  -8.535  1.00  0.00     0.240 C 
ATOM     40  N   ARG A   5      23.806   8.708  -7.787  1.00  0.00    -0.343 N 
ATOM     41  O   GLY A   4      22.881  10.030  -9.473  1.00  0.00    -0.273 OA
ATOM     42  H   UNL     1      23.641   7.992  -7.043  1.00  0.00     0.164 HD
BRANCH  40  43
ATOM     43  CA  ARG A   5      25.174   9.114  -8.068  1.00  0.00     0.171 C 
BRANCH  43  44
ATOM     44  C   ARG A   5      25.896   7.965  -8.684  1.00  0.00     0.243 C 
ATOM     45  N   ASN A   6      25.915   7.866 -10.101  1.00  0.00    -0.341 N 
ATOM     46  O   ARG A   5      26.447   7.086  -7.969  1.00  0.00    -0.273 OA
ATOM     47  H   UNL     1      25.496   8.652 -10.649  1.00  0.00     0.164 HD
BRANCH  45  48
ATOM     48  CA  ASN A   6      26.543   6.751 -10.803  1.00  0.00     0.201 C 
BRANCH  48  49
ATOM     49  C   ASN A   6      27.993   6.642 -10.416  1.00  0.00     0.326 C 
ATOM     50  O   ASN A   6      28.795   7.579 -10.677  1.00  0.00    -0.250 OA
BRANCH  49  51
ATOM     51  OXT ASN A   6      28.452   5.499  -9.769  1.00  0.00    -0.480 OA
ATOM     52  H   UNL     1      29.425   5.409  -9.501  1.00  0.00     0.296 HD
ENDBRANCH  49  51
ENDBRANCH  48  49
BRANCH  48  53
ATOM     53  CB  ASN A   6      26.424   6.947 -12.323  1.00  0.00     0.136 C 
BRANCH  53  54
ATOM     54  CG  ASN A   6      25.010   7.182 -12.772  1.00  0.00     0.220 C 
ATOM     55  ND2 ASN A   6      24.754   8.089 -13.834  1.00  0.00    -0.370 N 
ATOM     56  OD1 ASN A   6      24.051   6.563 -12.238  1.00  0.00    -0.275 OA
ATOM     57  H   UNL     1      25.534   8.596 -14.309  1.00  0.00     0.159 HD
ATOM     58  H   UNL     1      23.775   8.258 -14.157  1.00  0.00     0.159 HD
ENDBRANCH  53  54
ENDBRANCH  48  53
ENDBRANCH  45  48
ENDBRANCH  43  44
BRANCH  43  59
ATOM     59  CB  ARG A   5      25.851   9.597  -6.791  1.00  0.00     0.037 C 
BRANCH  59  60
ATOM     60  CG  ARG A   5      25.162  10.858  -6.271  1.00  0.00     0.024 C 
BRANCH  60  61
ATOM     61  CD  ARG A   5      25.838  11.390  -5.015  1.00  0.00     0.116 C 
BRANCH  61  62
ATOM     62  NE  ARG A   5      25.377  10.684  -3.821  1.00  0.00    -0.357 N 
ATOM     63  CZ  ARG A   5      25.471  11.282  -2.526  1.00  0.00     0.185 C 
ATOM     64  NH2 ARG A   5      26.098  12.550  -2.354  1.00  0.00    -0.370 N 
ATOM     65  H   UNL     1      24.900   9.759  -3.917  1.00  0.00     0.163 HD
ATOM     66  H   UNL     1      26.078  13.014  -1.419  1.00  0.00     0.159 HD
ATOM     67  H   UNL     1      26.675  12.997  -3.098  1.00  0.00     0.159 HD
BRANCH  63  68
ATOM     68  NH1 ARG A   5      24.986  10.673  -1.492  1.00  0.00    -0.270 NA
ATOM     69  H   UNL     1      24.541   9.732  -1.564  1.00  0.00     0.191 HD
ENDBRANCH  63  68
ENDBRANCH  61  62
ENDBRANCH  60  61
ENDBRANCH  59  60
ENDBRANCH  43  59
ENDBRANCH  40  43
ENDBRANCH  38  39
ENDBRANCH   3  38
TORSDOF 27
