REMARK SMILES CC(C)C[C@H](NC(=O)[C@@H](NC(=O)CNC(=O)[C@@H](N)CO)C(C)C)C(=O)N[C@@H](CCCNC(=N)N)C(=O)N[C@@H](CC(N)=O)C(=O)O
REMARK SMILES IDX 7 1 8 2 6 3 9 5 10 6 11 7 12 8 13 10 14 11 15 12 16 13 17 15
REMARK SMILES IDX 18 16 19 19 20 20 21 22 22 23 23 24 5 25 24 26 26 27 25 28
REMARK SMILES IDX 27 30 35 31 37 32 36 33 38 35 43 36 44 37 45 38 39 40 40 41
REMARK SMILES IDX 41 42 42 43 28 46 29 47 30 48 31 49 32 50 34 51 33 55 4 57
REMARK SMILES IDX 2 58 1 59 3 60
REMARK H PARENT 6 4 10 9 14 14 18 17 18 18 20 21 26 29 37 34 45 39 41 44 41 45
REMARK H PARENT 31 52 34 53 34 54 33 56
ROOT
ATOM      1  C   VAL A   3      20.045  10.081  -6.455  1.00  0.00     0.243 C 
ATOM      2  O   VAL A   3      20.177   9.169  -5.593  1.00  0.00    -0.273 OA
ATOM      3  N   LEU A   4      20.564   9.919  -7.767  1.00  0.00    -0.343 N 
ATOM      4  H   UNL     1      20.398  10.661  -8.485  1.00  0.00     0.164 HD
ENDROOT
BRANCH   1   5
ATOM      5  CA  VAL A   3      19.314  11.338  -6.125  1.00  0.00     0.174 C 
BRANCH   5   6
ATOM      6  N   VAL A   3      18.035  10.985  -5.537  1.00  0.00    -0.343 N 
ATOM      7  C   GLY A   2      16.867  11.760  -5.740  1.00  0.00     0.240 C 
ATOM      8  O   GLY A   2      16.901  12.809  -6.442  1.00  0.00    -0.273 OA
ATOM      9  H   UNL     1      17.990  10.197  -4.850  1.00  0.00     0.164 HD
BRANCH   7  10
ATOM     10  CA  GLY A   2      15.631  11.330  -5.024  1.00  0.00     0.216 C 
BRANCH  10  11
ATOM     11  N   GLY A   2      14.439  11.726  -5.742  1.00  0.00    -0.346 N 
ATOM     12  C   SER A   1      13.909  13.043  -5.629  1.00  0.00     0.239 C 
ATOM     13  O   SER A   1      14.446  13.867  -4.838  1.00  0.00    -0.273 OA
ATOM     14  H   UNL     1      13.858  10.960  -6.148  1.00  0.00     0.164 HD
BRANCH  12  15
ATOM     15  CA  SER A   1      12.657  13.409  -6.387  1.00  0.00     0.167 C 
BRANCH  15  16
ATOM     16  N   SER A   1      12.458  14.860  -6.403  1.00  0.00    -0.318 NA
ATOM     17  H   UNL     1      13.321  15.330  -6.764  1.00  0.00     0.119 HD
ATOM     18  H   UNL     1      12.292  15.194  -5.425  1.00  0.00     0.119 HD
ENDBRANCH  15  16
BRANCH  15  19
ATOM     19  CB  SER A   1      12.692  12.878  -7.835  1.00  0.00     0.184 C 
BRANCH  19  20
ATOM     20  OG  SER A   1      11.442  13.042  -8.446  1.00  0.00    -0.394 OA
ATOM     21  H   UNL     1      11.398  13.982  -8.760  1.00  0.00     0.210 HD
ENDBRANCH  19  20
ENDBRANCH  15  19
ENDBRANCH  12  15
ENDBRANCH  10  11
ENDBRANCH   7  10
ENDBRANCH   5   6
BRANCH   5  22
ATOM     22  CB  VAL A   3      20.112  12.270  -5.184  1.00  0.00     0.015 C 
ATOM     23  CG1 VAL A   3      20.415  11.652  -3.809  1.00  0.00     0.010 C 
ATOM     24  CG2 VAL A   3      21.405  12.765  -5.848  1.00  0.00     0.010 C 
ENDBRANCH   5  22
ENDBRANCH   1   5
BRANCH   3  25
ATOM     25  CA  LEU A   4      21.349   8.759  -8.138  1.00  0.00     0.171 C 
BRANCH  25  26
ATOM     26  C   LEU A   4      22.714   9.216  -8.520  1.00  0.00     0.243 C 
ATOM     27  N   ARG A   5      23.823   8.721  -7.785  1.00  0.00    -0.343 N 
ATOM     28  O   LEU A   4      22.877  10.033  -9.467  1.00  0.00    -0.273 OA
ATOM     29  H   UNL     1      23.668   8.031  -7.014  1.00  0.00     0.164 HD
BRANCH  27  30
ATOM     30  CA  ARG A   5      25.187   9.122  -8.074  1.00  0.00     0.171 C 
BRANCH  30  31
ATOM     31  C   ARG A   5      25.900   7.967  -8.686  1.00  0.00     0.243 C 
ATOM     32  N   ASN A   6      25.913   7.864 -10.103  1.00  0.00    -0.341 N 
ATOM     33  O   ARG A   5      26.447   7.086  -7.970  1.00  0.00    -0.273 OA
ATOM     34  H   UNL     1      25.489   8.647 -10.651  1.00  0.00     0.164 HD
BRANCH  32  35
ATOM     35  CA  ASN A   6      26.542   6.750 -10.804  1.00  0.00     0.201 C 
BRANCH  35  36
ATOM     36  C   ASN A   6      27.993   6.642 -10.416  1.00  0.00     0.326 C 
ATOM     37  O   ASN A   6      28.794   7.579 -10.677  1.00  0.00    -0.250 OA
BRANCH  36  38
ATOM     38  OXT ASN A   6      28.451   5.499  -9.769  1.00  0.00    -0.480 OA
ATOM     39  H   UNL     1      29.424   5.409  -9.500  1.00  0.00     0.296 HD
ENDBRANCH  36  38
ENDBRANCH  35  36
BRANCH  35  40
ATOM     40  CB  ASN A   6      26.424   6.946 -12.324  1.00  0.00     0.136 C 
BRANCH  40  41
ATOM     41  CG  ASN A   6      25.010   7.180 -12.773  1.00  0.00     0.220 C 
ATOM     42  ND2 ASN A   6      24.753   8.090 -13.833  1.00  0.00    -0.370 N 
ATOM     43  OD1 ASN A   6      24.053   6.558 -12.243  1.00  0.00    -0.275 OA
ATOM     44  H   UNL     1      23.774   8.258 -14.156  1.00  0.00     0.159 HD
ATOM     45  H   UNL     1      25.533   8.600 -14.306  1.00  0.00     0.159 HD
ENDBRANCH  40  41
ENDBRANCH  35  40
ENDBRANCH  32  35
ENDBRANCH  30  31
BRANCH  30  46
ATOM     46  CB  ARG A   5      25.867   9.606  -6.798  1.00  0.00     0.037 C 
BRANCH  46  47
ATOM     47  CG  ARG A   5      25.167  10.857  -6.270  1.00  0.00     0.024 C 
BRANCH  47  48
ATOM     48  CD  ARG A   5      25.841  11.390  -5.015  1.00  0.00     0.116 C 
BRANCH  48  49
ATOM     49  NE  ARG A   5      25.379  10.684  -3.823  1.00  0.00    -0.357 N 
ATOM     50  CZ  ARG A   5      25.468  11.279  -2.527  1.00  0.00     0.185 C 
ATOM     51  NH2 ARG A   5      26.106  12.542  -2.350  1.00  0.00    -0.370 N 
ATOM     52  H   UNL     1      24.907   9.756  -3.920  1.00  0.00     0.163 HD
ATOM     53  H   UNL     1      26.691  12.984  -3.091  1.00  0.00     0.159 HD
ATOM     54  H   UNL     1      26.083  13.007  -1.415  1.00  0.00     0.159 HD
BRANCH  50  55
ATOM     55  NH1 ARG A   5      24.958  10.679  -1.499  1.00  0.00    -0.270 NA
ATOM     56  H   UNL     1      24.477   9.755  -1.583  1.00  0.00     0.191 HD
ENDBRANCH  50  55
ENDBRANCH  48  49
ENDBRANCH  47  48
ENDBRANCH  46  47
ENDBRANCH  30  46
ENDBRANCH  27  30
ENDBRANCH  25  26
BRANCH  25  57
ATOM     57  CB  LEU A   4      20.655   8.000  -9.271  1.00  0.00     0.038 C 
BRANCH  57  58
ATOM     58  CG  LEU A   4      21.448   6.771  -9.769  1.00  0.00    -0.015 C 
ATOM     59  CD1 LEU A   4      21.762   5.778  -8.639  1.00  0.00     0.007 C 
ATOM     60  CD2 LEU A   4      20.661   6.068 -10.877  1.00  0.00     0.007 C 
ENDBRANCH  57  58
ENDBRANCH  25  57
ENDBRANCH   3  25
TORSDOF 25
