REMARK SMILES CC[C@H](C)[C@H](NC(=O)[C@H](CC(C)C)NC(=O)[C@H](CCCCN)NC(=O)[C@@H](N)CO)C(=O)N[C@@H](CCCNC(=N)N)C(=O)N[C@@H](CC(N)=O)C(=O)O
REMARK SMILES IDX 7 1 8 2 6 3 9 5 14 6 15 7 16 8 17 10 23 11 24 12 25 13 26 15
REMARK SMILES IDX 27 16 28 19 29 20 18 22 19 23 20 24 21 25 22 26 10 29 11 30
REMARK SMILES IDX 12 31 13 32 5 33 30 34 32 35 31 36 33 38 41 39 43 40 42 41
REMARK SMILES IDX 44 43 49 44 50 45 51 46 45 48 46 49 47 50 48 51 34 54 35 55
REMARK SMILES IDX 36 56 37 57 38 58 40 59 39 63 3 65 4 66 2 67 1 68
REMARK H PARENT 6 4 14 9 23 14 27 17 27 18 29 21 22 27 22 28 32 37 43 42 51 47
REMARK H PARENT 47 52 47 53 37 60 40 61 40 62 39 64
ROOT
ATOM      1  C   LEU A   3      20.043  10.085  -6.472  1.00  0.00     0.243 C 
ATOM      2  O   LEU A   3      20.154   9.154  -5.627  1.00  0.00    -0.273 OA
ATOM      3  N   ILE A   4      20.579   9.941  -7.775  1.00  0.00    -0.342 N 
ATOM      4  H   UNL     1      20.497  10.739  -8.447  1.00  0.00     0.164 HD
ENDROOT
BRANCH   1   5
ATOM      5  CA  LEU A   3      19.326  11.351  -6.135  1.00  0.00     0.171 C 
BRANCH   5   6
ATOM      6  N   LEU A   3      18.072  11.015  -5.513  1.00  0.00    -0.343 N 
ATOM      7  C   LYS A   2      16.873  11.739  -5.742  1.00  0.00     0.243 C 
ATOM      8  O   LYS A   2      16.890  12.787  -6.447  1.00  0.00    -0.273 OA
ATOM      9  H   UNL     1      18.146  10.384  -4.690  1.00  0.00     0.164 HD
BRANCH   7  10
ATOM     10  CA  LYS A   2      15.622  11.283  -5.042  1.00  0.00     0.171 C 
BRANCH  10  11
ATOM     11  N   LYS A   2      14.446  11.734  -5.771  1.00  0.00    -0.343 N 
ATOM     12  C   SER A   1      13.913  13.046  -5.637  1.00  0.00     0.239 C 
ATOM     13  O   SER A   1      14.449  13.862  -4.837  1.00  0.00    -0.273 OA
ATOM     14  H   UNL     1      13.889  11.014  -6.278  1.00  0.00     0.164 HD
BRANCH  12  15
ATOM     15  CA  SER A   1      12.655  13.411  -6.386  1.00  0.00     0.167 C 
BRANCH  15  16
ATOM     16  N   SER A   1      12.468  14.863  -6.378  1.00  0.00    -0.318 NA
ATOM     17  H   UNL     1      11.582  15.091  -6.886  1.00  0.00     0.119 HD
ATOM     18  H   UNL     1      12.305  15.171  -5.391  1.00  0.00     0.119 HD
ENDBRANCH  15  16
BRANCH  15  19
ATOM     19  CB  SER A   1      12.693  12.903  -7.849  1.00  0.00     0.184 C 
BRANCH  19  20
ATOM     20  OG  SER A   1      11.436  13.043  -8.450  1.00  0.00    -0.394 OA
ATOM     21  H   UNL     1      10.856  12.333  -8.067  1.00  0.00     0.210 HD
ENDBRANCH  19  20
ENDBRANCH  15  19
ENDBRANCH  12  15
ENDBRANCH  10  11
BRANCH  10  22
ATOM     22  CB  LYS A   2      15.571   9.737  -4.920  1.00  0.00     0.035 C 
BRANCH  22  23
ATOM     23  CG  LYS A   2      14.392   9.268  -4.068  1.00  0.00     0.004 C 
BRANCH  23  24
ATOM     24  CD  LYS A   2      14.350   7.737  -3.969  1.00  0.00     0.015 C 
BRANCH  24  25
ATOM     25  CE  LYS A   2      13.161   7.272  -3.115  1.00  0.00     0.077 C 
BRANCH  25  26
ATOM     26  NZ  LYS A   2      13.117   5.815  -3.016  1.00  0.00    -0.330 NA
ATOM     27  H   UNL     1      14.013   5.477  -2.594  1.00  0.00     0.118 HD
ATOM     28  H   UNL     1      13.046   5.412  -3.978  1.00  0.00     0.118 HD
ENDBRANCH  25  26
ENDBRANCH  24  25
ENDBRANCH  23  24
ENDBRANCH  22  23
ENDBRANCH  10  22
ENDBRANCH   7  10
ENDBRANCH   5   6
BRANCH   5  29
ATOM     29  CB  LEU A   3      20.158  12.251  -5.213  1.00  0.00     0.038 C 
BRANCH  29  30
ATOM     30  CG  LEU A   3      20.416  11.679  -3.789  1.00  0.00    -0.015 C 
ATOM     31  CD1 LEU A   3      21.820  12.066  -3.319  1.00  0.00     0.007 C 
ATOM     32  CD2 LEU A   3      19.372  12.171  -2.776  1.00  0.00     0.007 C 
ENDBRANCH  29  30
ENDBRANCH   5  29
ENDBRANCH   1   5
BRANCH   3  33
ATOM     33  CA  ILE A   4      21.345   8.773  -8.167  1.00  0.00     0.174 C 
BRANCH  33  34
ATOM     34  C   ILE A   4      22.718   9.217  -8.535  1.00  0.00     0.243 C 
ATOM     35  N   ARG A   5      23.820   8.720  -7.790  1.00  0.00    -0.343 N 
ATOM     36  O   ILE A   4      22.895  10.046  -9.468  1.00  0.00    -0.273 OA
ATOM     37  H   UNL     1      23.660   8.030  -7.021  1.00  0.00     0.164 HD
BRANCH  35  38
ATOM     38  CA  ARG A   5      25.186   9.120  -8.072  1.00  0.00     0.171 C 
BRANCH  38  39
ATOM     39  C   ARG A   5      25.900   7.966  -8.685  1.00  0.00     0.243 C 
ATOM     40  N   ASN A   6      25.913   7.864 -10.102  1.00  0.00    -0.341 N 
ATOM     41  O   ARG A   5      26.448   7.086  -7.969  1.00  0.00    -0.273 OA
ATOM     42  H   UNL     1      25.488   8.646 -10.650  1.00  0.00     0.164 HD
BRANCH  40  43
ATOM     43  CA  ASN A   6      26.542   6.750 -10.804  1.00  0.00     0.201 C 
BRANCH  43  44
ATOM     44  C   ASN A   6      27.993   6.642 -10.416  1.00  0.00     0.326 C 
ATOM     45  O   ASN A   6      28.794   7.579 -10.677  1.00  0.00    -0.250 OA
BRANCH  44  46
ATOM     46  OXT ASN A   6      28.452   5.499  -9.769  1.00  0.00    -0.480 OA
ATOM     47  H   UNL     1      29.424   5.409  -9.500  1.00  0.00     0.296 HD
ENDBRANCH  44  46
ENDBRANCH  43  44
BRANCH  43  48
ATOM     48  CB  ASN A   6      26.424   6.947 -12.323  1.00  0.00     0.136 C 
BRANCH  48  49
ATOM     49  CG  ASN A   6      25.010   7.181 -12.773  1.00  0.00     0.220 C 
ATOM     50  ND2 ASN A   6      24.753   8.091 -13.833  1.00  0.00    -0.370 N 
ATOM     51  OD1 ASN A   6      24.053   6.558 -12.243  1.00  0.00    -0.275 OA
ATOM     52  H   UNL     1      23.775   8.259 -14.156  1.00  0.00     0.159 HD
ATOM     53  H   UNL     1      25.533   8.600 -14.306  1.00  0.00     0.159 HD
ENDBRANCH  48  49
ENDBRANCH  43  48
ENDBRANCH  40  43
ENDBRANCH  38  39
BRANCH  38  54
ATOM     54  CB  ARG A   5      25.861   9.603  -6.793  1.00  0.00     0.037 C 
BRANCH  54  55
ATOM     55  CG  ARG A   5      25.166  10.860  -6.271  1.00  0.00     0.024 C 
BRANCH  55  56
ATOM     56  CD  ARG A   5      25.839  11.392  -5.014  1.00  0.00     0.116 C 
BRANCH  56  57
ATOM     57  NE  ARG A   5      25.377  10.684  -3.823  1.00  0.00    -0.357 N 
ATOM     58  CZ  ARG A   5      25.468  11.279  -2.527  1.00  0.00     0.185 C 
ATOM     59  NH2 ARG A   5      26.105  12.541  -2.350  1.00  0.00    -0.370 N 
ATOM     60  H   UNL     1      24.898   9.760  -3.921  1.00  0.00     0.163 HD
ATOM     61  H   UNL     1      26.691  12.983  -3.090  1.00  0.00     0.159 HD
ATOM     62  H   UNL     1      26.081  13.007  -1.415  1.00  0.00     0.159 HD
BRANCH  58  63
ATOM     63  NH1 ARG A   5      24.956  10.679  -1.500  1.00  0.00    -0.270 NA
ATOM     64  H   UNL     1      24.474   9.757  -1.584  1.00  0.00     0.191 HD
ENDBRANCH  58  63
ENDBRANCH  56  57
ENDBRANCH  55  56
ENDBRANCH  54  55
ENDBRANCH  38  54
ENDBRANCH  35  38
ENDBRANCH  33  34
BRANCH  33  65
ATOM     65  CB  ILE A   4      20.628   7.977  -9.284  1.00  0.00     0.018 C 
ATOM     66  CG1 ILE A   4      20.218   8.831 -10.499  1.00  0.00     0.010 C 
BRANCH  65  67
ATOM     67  CG2 ILE A   4      21.454   6.763  -9.763  1.00  0.00     0.002 C 
ATOM     68  CD1 ILE A   4      21.770   5.775  -8.641  1.00  0.00     0.004 C 
ENDBRANCH  65  67
ENDBRANCH  33  65
ENDBRANCH   3  33
TORSDOF 31
