REMARK SMILES CC(C)C[C@H](NC(=O)[C@H](Cc1ccccc1)NC(=O)[C@@H](N)CO)C(=O)N[C@@H](CCCCN)C(=O)N[C@@H](CCCNC(=N)N)C(=O)N[C@@H](C)C(=O)O
REMARK SMILES IDX 24 1 25 2 26 3 5 5 6 6 7 7 8 8 9 10 17 11 18 12 19 13 20 15
REMARK SMILES IDX 21 16 22 19 23 20 10 22 11 23 12 24 16 25 13 26 15 27 14 28
REMARK SMILES IDX 4 29 2 30 1 31 3 32 27 33 33 34 35 35 34 36 36 38 44 39
REMARK SMILES IDX 46 40 45 41 47 43 48 44 49 45 50 46 51 47 37 49 38 50 39 51
REMARK SMILES IDX 40 52 41 53 43 54 42 58 28 60 29 61 30 62 31 63 32 64
REMARK H PARENT 26 4 6 9 17 14 21 17 21 18 23 21 35 37 46 42 51 48 40 55 43 56
REMARK H PARENT 43 57 42 59 32 65 32 66
ROOT
ATOM      1  C   LEU A   3      20.051  10.088  -6.476  1.00  0.00     0.243 C 
ATOM      2  O   LEU A   3      20.162   9.163  -5.624  1.00  0.00    -0.273 OA
ATOM      3  N   LYS A   4      20.566   9.921  -7.785  1.00  0.00    -0.343 N 
ATOM      4  H   UNL     1      20.401  10.660  -8.507  1.00  0.00     0.164 HD
ENDROOT
BRANCH   1   5
ATOM      5  CA  LEU A   3      19.339  11.356  -6.146  1.00  0.00     0.171 C 
BRANCH   5   6
ATOM      6  N   LEU A   3      18.082  11.023  -5.536  1.00  0.00    -0.343 N 
ATOM      7  C   PHE A   2      16.886  11.746  -5.775  1.00  0.00     0.243 C 
ATOM      8  O   PHE A   2      16.904  12.796  -6.474  1.00  0.00    -0.273 OA
ATOM      9  H   UNL     1      18.155  10.389  -4.716  1.00  0.00     0.164 HD
BRANCH   7  10
ATOM     10  CA  PHE A   2      15.651  11.314  -5.056  1.00  0.00     0.175 C 
BRANCH  10  11
ATOM     11  N   PHE A   2      14.454  11.739  -5.767  1.00  0.00    -0.343 N 
ATOM     12  C   SER A   1      13.914  13.049  -5.637  1.00  0.00     0.239 C 
ATOM     13  O   SER A   1      14.441  13.870  -4.837  1.00  0.00    -0.273 OA
ATOM     14  H   UNL     1      13.870  10.998  -6.212  1.00  0.00     0.164 HD
BRANCH  12  15
ATOM     15  CA  SER A   1      12.661  13.409  -6.393  1.00  0.00     0.167 C 
BRANCH  15  16
ATOM     16  N   SER A   1      12.471  14.861  -6.379  1.00  0.00    -0.318 NA
ATOM     17  H   UNL     1      11.538  15.086  -6.794  1.00  0.00     0.119 HD
ATOM     18  H   UNL     1      13.201  15.316  -6.976  1.00  0.00     0.119 HD
ENDBRANCH  15  16
BRANCH  15  19
ATOM     19  CB  SER A   1      12.691  12.879  -7.846  1.00  0.00     0.184 C 
BRANCH  19  20
ATOM     20  OG  SER A   1      11.437  13.052  -8.443  1.00  0.00    -0.394 OA
ATOM     21  H   UNL     1      11.538  12.777  -9.391  1.00  0.00     0.210 HD
ENDBRANCH  19  20
ENDBRANCH  15  19
ENDBRANCH  12  15
ENDBRANCH  10  11
BRANCH  10  22
ATOM     22  CB  PHE A   2      15.610   9.774  -4.880  1.00  0.00     0.070 C 
BRANCH  22  23
ATOM     23  CG  PHE A   2      14.435   9.292  -4.091  1.00  0.00    -0.045 A 
ATOM     24  CD1 PHE A   2      13.898  10.048  -3.032  1.00  0.00     0.004 A 
ATOM     25  CD2 PHE A   2      13.964   7.991  -4.310  1.00  0.00     0.004 A 
ATOM     26  CE1 PHE A   2      12.866   9.535  -2.258  1.00  0.00     0.000 A 
ATOM     27  CE2 PHE A   2      12.937   7.477  -3.520  1.00  0.00     0.000 A 
ATOM     28  CZ  PHE A   2      12.384   8.251  -2.500  1.00  0.00     0.000 A 
ENDBRANCH  22  23
ENDBRANCH  10  22
ENDBRANCH   7  10
ENDBRANCH   5   6
BRANCH   5  29
ATOM     29  CB  LEU A   3      20.164  12.254  -5.215  1.00  0.00     0.038 C 
BRANCH  29  30
ATOM     30  CG  LEU A   3      20.417  11.680  -3.791  1.00  0.00    -0.015 C 
ATOM     31  CD1 LEU A   3      21.819  12.066  -3.316  1.00  0.00     0.007 C 
ATOM     32  CD2 LEU A   3      19.369  12.170  -2.780  1.00  0.00     0.007 C 
ENDBRANCH  29  30
ENDBRANCH   5  29
ENDBRANCH   1   5
BRANCH   3  33
ATOM     33  CA  LYS A   4      21.349   8.759  -8.149  1.00  0.00     0.171 C 
BRANCH  33  34
ATOM     34  C   LYS A   4      22.714   9.215  -8.526  1.00  0.00     0.243 C 
ATOM     35  N   ARG A   5      23.823   8.721  -7.789  1.00  0.00    -0.343 N 
ATOM     36  O   LYS A   4      22.879  10.034  -9.471  1.00  0.00    -0.273 OA
ATOM     37  H   UNL     1      23.667   8.031  -7.018  1.00  0.00     0.164 HD
BRANCH  35  38
ATOM     38  CA  ARG A   5      25.186   9.120  -8.079  1.00  0.00     0.171 C 
BRANCH  38  39
ATOM     39  C   ARG A   5      25.897   7.963  -8.692  1.00  0.00     0.243 C 
ATOM     40  N   ALA A   6      25.884   7.839 -10.110  1.00  0.00    -0.341 N 
ATOM     41  O   ARG A   5      26.455   7.090  -7.974  1.00  0.00    -0.273 OA
ATOM     42  H   UNL     1      25.366   8.562 -10.663  1.00  0.00     0.164 HD
BRANCH  40  43
ATOM     43  CA  ALA A   6      26.543   6.744 -10.813  1.00  0.00     0.189 C 
ATOM     44  CB  ALA A   6      26.419   6.954 -12.323  1.00  0.00     0.043 C 
BRANCH  43  45
ATOM     45  C   ALA A   6      27.993   6.651 -10.417  1.00  0.00     0.325 C 
ATOM     46  O   ALA A   6      28.790   7.589 -10.686  1.00  0.00    -0.250 OA
BRANCH  45  47
ATOM     47  OXT ALA A   6      28.455   5.520  -9.752  1.00  0.00    -0.480 OA
ATOM     48  H   UNL     1      29.427   5.440  -9.476  1.00  0.00     0.296 HD
ENDBRANCH  45  47
ENDBRANCH  43  45
ENDBRANCH  40  43
ENDBRANCH  38  39
BRANCH  38  49
ATOM     49  CB  ARG A   5      25.864   9.604  -6.800  1.00  0.00     0.037 C 
BRANCH  49  50
ATOM     50  CG  ARG A   5      25.166  10.859  -6.273  1.00  0.00     0.024 C 
BRANCH  50  51
ATOM     51  CD  ARG A   5      25.840  11.390  -5.016  1.00  0.00     0.116 C 
BRANCH  51  52
ATOM     52  NE  ARG A   5      25.378  10.684  -3.824  1.00  0.00    -0.357 N 
ATOM     53  CZ  ARG A   5      25.468  11.279  -2.528  1.00  0.00     0.185 C 
ATOM     54  NH2 ARG A   5      26.105  12.541  -2.351  1.00  0.00    -0.370 N 
ATOM     55  H   UNL     1      24.900   9.759  -3.922  1.00  0.00     0.163 HD
ATOM     56  H   UNL     1      26.691  12.983  -3.091  1.00  0.00     0.159 HD
ATOM     57  H   UNL     1      26.081  13.007  -1.416  1.00  0.00     0.159 HD
BRANCH  53  58
ATOM     58  NH1 ARG A   5      24.956  10.679  -1.501  1.00  0.00    -0.270 NA
ATOM     59  H   UNL     1      24.474   9.757  -1.585  1.00  0.00     0.191 HD
ENDBRANCH  53  58
ENDBRANCH  51  52
ENDBRANCH  50  51
ENDBRANCH  49  50
ENDBRANCH  38  49
ENDBRANCH  35  38
ENDBRANCH  33  34
BRANCH  33  60
ATOM     60  CB  LYS A   4      20.658   7.994  -9.281  1.00  0.00     0.035 C 
BRANCH  60  61
ATOM     61  CG  LYS A   4      21.454   6.775  -9.774  1.00  0.00     0.004 C 
BRANCH  61  62
ATOM     62  CD  LYS A   4      21.768   5.770  -8.655  1.00  0.00     0.015 C 
BRANCH  62  63
ATOM     63  CE  LYS A   4      22.364   4.482  -9.231  1.00  0.00     0.077 C 
BRANCH  63  64
ATOM     64  NZ  LYS A   4      22.668   3.543  -8.156  1.00  0.00    -0.330 NA
ATOM     65  H   UNL     1      22.994   2.652  -8.595  1.00  0.00     0.118 HD
ATOM     66  H   UNL     1      23.479   3.919  -7.613  1.00  0.00     0.118 HD
ENDBRANCH  63  64
ENDBRANCH  62  63
ENDBRANCH  61  62
ENDBRANCH  60  61
ENDBRANCH  33  60
ENDBRANCH   3  33
TORSDOF 29
