REMARK SMILES C[C@@H](O)[C@H](NC(=O)[C@H](Cc1ccccc1)NC(=O)[C@@H](N)CO)C(=O)NCC(=O)N[C@@H](CCCNC(=N)N)C(=O)N[C@@H](CC(N)=O)C(=O)O
REMARK SMILES IDX 23 1 24 2 25 3 4 5 5 6 6 7 7 8 8 10 16 11 17 12 18 13 19 15
REMARK SMILES IDX 20 16 21 19 22 20 9 22 10 23 11 24 15 25 12 26 14 27 13 28
REMARK SMILES IDX 2 29 1 30 3 31 26 33 27 34 29 35 28 36 30 38 38 39 40 40
REMARK SMILES IDX 39 41 41 43 46 44 47 45 48 46 42 48 43 49 44 50 45 51 31 54
REMARK SMILES IDX 32 55 33 56 34 57 35 58 37 59 36 63
REMARK H PARENT 25 4 5 9 16 14 20 17 20 18 22 21 3 32 29 37 40 42 48 47 44 52
REMARK H PARENT 44 53 34 60 37 61 37 62 36 64
ROOT
ATOM      1  C   THR A   3      20.057  10.082  -6.471  1.00  0.00     0.245 C 
ATOM      2  O   THR A   3      20.181   9.166  -5.612  1.00  0.00    -0.273 OA
ATOM      3  N   GLY A   4      20.557   9.911  -7.789  1.00  0.00    -0.345 N 
ATOM      4  H   UNL     1      20.389  10.657  -8.502  1.00  0.00     0.164 HD
ENDROOT
BRANCH   1   5
ATOM      5  CA  THR A   3      19.350  11.358  -6.138  1.00  0.00     0.200 C 
BRANCH   5   6
ATOM      6  N   THR A   3      18.089  11.030  -5.523  1.00  0.00    -0.340 N 
ATOM      7  C   PHE A   2      16.889  11.746  -5.776  1.00  0.00     0.243 C 
ATOM      8  O   PHE A   2      16.906  12.793  -6.480  1.00  0.00    -0.273 OA
ATOM      9  H   UNL     1      18.161  10.439  -4.671  1.00  0.00     0.164 HD
BRANCH   7  10
ATOM     10  CA  PHE A   2      15.653  11.312  -5.059  1.00  0.00     0.175 C 
BRANCH  10  11
ATOM     11  N   PHE A   2      14.455  11.740  -5.770  1.00  0.00    -0.343 N 
ATOM     12  C   SER A   1      13.915  13.049  -5.636  1.00  0.00     0.239 C 
ATOM     13  O   SER A   1      14.449  13.868  -4.838  1.00  0.00    -0.273 OA
ATOM     14  H   UNL     1      13.869  11.000  -6.214  1.00  0.00     0.164 HD
BRANCH  12  15
ATOM     15  CA  SER A   1      12.655  13.411  -6.385  1.00  0.00     0.167 C 
BRANCH  15  16
ATOM     16  N   SER A   1      12.468  14.864  -6.382  1.00  0.00    -0.318 NA
ATOM     17  H   UNL     1      11.564  15.088  -6.857  1.00  0.00     0.119 HD
ATOM     18  H   UNL     1      12.337  15.179  -5.393  1.00  0.00     0.119 HD
ENDBRANCH  15  16
BRANCH  15  19
ATOM     19  CB  SER A   1      12.696  12.894  -7.842  1.00  0.00     0.184 C 
BRANCH  19  20
ATOM     20  OG  SER A   1      11.440  13.036  -8.447  1.00  0.00    -0.394 OA
ATOM     21  H   UNL     1      11.454  13.890  -8.953  1.00  0.00     0.210 HD
ENDBRANCH  19  20
ENDBRANCH  15  19
ENDBRANCH  12  15
ENDBRANCH  10  11
BRANCH  10  22
ATOM     22  CB  PHE A   2      15.611   9.773  -4.887  1.00  0.00     0.070 C 
BRANCH  22  23
ATOM     23  CG  PHE A   2      14.439   9.291  -4.091  1.00  0.00    -0.045 A 
ATOM     24  CD1 PHE A   2      13.900  10.047  -3.033  1.00  0.00     0.004 A 
ATOM     25  CD2 PHE A   2      13.966   7.990  -4.310  1.00  0.00     0.004 A 
ATOM     26  CE1 PHE A   2      12.867   9.536  -2.259  1.00  0.00     0.000 A 
ATOM     27  CE2 PHE A   2      12.938   7.477  -3.520  1.00  0.00     0.000 A 
ATOM     28  CZ  PHE A   2      12.385   8.252  -2.501  1.00  0.00     0.000 A 
ENDBRANCH  22  23
ENDBRANCH  10  22
ENDBRANCH   7  10
ENDBRANCH   5   6
BRANCH   5  29
ATOM     29  CB  THR A   3      20.166  12.273  -5.202  1.00  0.00     0.143 C 
ATOM     30  CG2 THR A   3      20.443  11.686  -3.804  1.00  0.00     0.041 C 
BRANCH  29  31
ATOM     31  OG1 THR A   3      21.366  12.671  -5.819  1.00  0.00    -0.391 OA
ATOM     32  H   UNL     1      21.962  11.879  -5.861  1.00  0.00     0.211 HD
ENDBRANCH  29  31
ENDBRANCH   5  29
ENDBRANCH   1   5
BRANCH   3  33
ATOM     33  CA  GLY A   4      21.332   8.756  -8.193  1.00  0.00     0.216 C 
BRANCH  33  34
ATOM     34  C   GLY A   4      22.705   9.205  -8.535  1.00  0.00     0.240 C 
ATOM     35  N   ARG A   5      23.807   8.709  -7.787  1.00  0.00    -0.343 N 
ATOM     36  O   GLY A   4      22.881  10.030  -9.472  1.00  0.00    -0.273 OA
ATOM     37  H   UNL     1      23.642   7.992  -7.043  1.00  0.00     0.164 HD
BRANCH  35  38
ATOM     38  CA  ARG A   5      25.175   9.114  -8.069  1.00  0.00     0.171 C 
BRANCH  38  39
ATOM     39  C   ARG A   5      25.896   7.965  -8.684  1.00  0.00     0.243 C 
ATOM     40  N   ASN A   6      25.915   7.866 -10.101  1.00  0.00    -0.341 N 
ATOM     41  O   ARG A   5      26.447   7.085  -7.969  1.00  0.00    -0.273 OA
ATOM     42  H   UNL     1      25.496   8.652 -10.650  1.00  0.00     0.164 HD
BRANCH  40  43
ATOM     43  CA  ASN A   6      26.543   6.751 -10.803  1.00  0.00     0.201 C 
BRANCH  43  44
ATOM     44  C   ASN A   6      27.993   6.642 -10.416  1.00  0.00     0.326 C 
ATOM     45  O   ASN A   6      28.795   7.579 -10.677  1.00  0.00    -0.250 OA
BRANCH  44  46
ATOM     46  OXT ASN A   6      28.452   5.499  -9.769  1.00  0.00    -0.480 OA
ATOM     47  H   UNL     1      29.425   5.409  -9.501  1.00  0.00     0.296 HD
ENDBRANCH  44  46
ENDBRANCH  43  44
BRANCH  43  48
ATOM     48  CB  ASN A   6      26.424   6.947 -12.323  1.00  0.00     0.136 C 
BRANCH  48  49
ATOM     49  CG  ASN A   6      25.010   7.181 -12.772  1.00  0.00     0.220 C 
ATOM     50  ND2 ASN A   6      24.754   8.089 -13.834  1.00  0.00    -0.370 N 
ATOM     51  OD1 ASN A   6      24.051   6.563 -12.238  1.00  0.00    -0.275 OA
ATOM     52  H   UNL     1      23.775   8.258 -14.157  1.00  0.00     0.159 HD
ATOM     53  H   UNL     1      25.534   8.596 -14.309  1.00  0.00     0.159 HD
ENDBRANCH  48  49
ENDBRANCH  43  48
ENDBRANCH  40  43
ENDBRANCH  38  39
BRANCH  38  54
ATOM     54  CB  ARG A   5      25.853   9.597  -6.792  1.00  0.00     0.037 C 
BRANCH  54  55
ATOM     55  CG  ARG A   5      25.163  10.856  -6.269  1.00  0.00     0.024 C 
BRANCH  55  56
ATOM     56  CD  ARG A   5      25.840  11.389  -5.014  1.00  0.00     0.116 C 
BRANCH  56  57
ATOM     57  NE  ARG A   5      25.377  10.686  -3.820  1.00  0.00    -0.357 N 
ATOM     58  CZ  ARG A   5      25.469  11.282  -2.526  1.00  0.00     0.185 C 
ATOM     59  NH2 ARG A   5      26.109  12.546  -2.352  1.00  0.00    -0.370 N 
ATOM     60  H   UNL     1      24.896   9.762  -3.910  1.00  0.00     0.163 HD
ATOM     61  H   UNL     1      26.698  12.982  -3.094  1.00  0.00     0.159 HD
ATOM     62  H   UNL     1      26.084  13.023  -1.423  1.00  0.00     0.159 HD
BRANCH  58  63
ATOM     63  NH1 ARG A   5      24.956  10.672  -1.506  1.00  0.00    -0.270 NA
ATOM     64  H   UNL     1      24.999  11.076  -0.544  1.00  0.00     0.191 HD
ENDBRANCH  58  63
ENDBRANCH  56  57
ENDBRANCH  55  56
ENDBRANCH  54  55
ENDBRANCH  38  54
ENDBRANCH  35  38
ENDBRANCH  33  34
ENDBRANCH   3  33
TORSDOF 26
