REMARK SMILES CC(C)C[C@H](NC(=O)CNC(=O)[C@@H](N)CO)C(=O)N[C@@H](Cc1ccc(O)cc1)C(=O)N[C@@H](CCCNC(=N)N)C(=O)N[C@@H](CC(N)=O)C(=O)O
REMARK SMILES IDX 17 1 18 2 19 3 5 5 6 6 7 7 8 8 9 10 10 11 11 12 12 13 13 15
REMARK SMILES IDX 14 16 15 19 16 20 4 22 2 23 1 24 3 25 20 26 29 27 31 28
REMARK SMILES IDX 30 29 32 31 40 32 42 33 41 34 43 36 48 37 49 38 50 39 44 41
REMARK SMILES IDX 45 42 46 43 47 44 33 47 34 48 35 49 36 50 37 51 39 52 38 56
REMARK SMILES IDX 21 58 22 59 23 60 28 61 24 62 27 63 25 64 26 65
REMARK H PARENT 19 4 6 9 10 14 14 17 14 18 16 21 31 30 42 35 50 40 46 45 46 46
REMARK H PARENT 36 53 39 54 39 55 38 57 26 66
ROOT
ATOM      1  C   LEU A   3      -2.153  -1.031   2.039  1.00  0.00     0.243 C 
ATOM      2  O   LEU A   3      -2.136  -0.894   3.293  1.00  0.00    -0.273 OA
ATOM      3  N   TYR A   4      -0.922  -1.123   1.303  1.00  0.00    -0.342 N 
ATOM      4  H   UNL     1      -0.976  -1.353   0.286  1.00  0.00     0.164 HD
ENDROOT
BRANCH   1   5
ATOM      5  CA  LEU A   3      -3.478  -1.139   1.329  1.00  0.00     0.171 C 
BRANCH   5   6
ATOM      6  N   LEU A   3      -3.529  -0.160   0.239  1.00  0.00    -0.343 N 
ATOM      7  C   GLY A   2      -3.693   1.242   0.490  1.00  0.00     0.240 C 
ATOM      8  O   GLY A   2      -3.593   1.690   1.663  1.00  0.00    -0.273 OA
ATOM      9  H   UNL     1      -3.471  -0.487  -0.753  1.00  0.00     0.164 HD
BRANCH   7  10
ATOM     10  CA  GLY A   2      -3.956   2.189  -0.642  1.00  0.00     0.216 C 
BRANCH  10  11
ATOM     11  N   GLY A   2      -5.049   3.094  -0.303  1.00  0.00    -0.346 N 
ATOM     12  C   SER A   1      -6.407   2.641  -0.194  1.00  0.00     0.239 C 
ATOM     13  O   SER A   1      -6.715   1.479  -0.567  1.00  0.00    -0.273 OA
ATOM     14  H   UNL     1      -4.821   4.093  -0.094  1.00  0.00     0.164 HD
BRANCH  12  15
ATOM     15  CA  SER A   1      -7.486   3.553   0.332  1.00  0.00     0.167 C 
BRANCH  15  16
ATOM     16  N   SER A   1      -6.988   4.330   1.468  1.00  0.00    -0.318 NA
ATOM     17  H   UNL     1      -6.648   3.664   2.200  1.00  0.00     0.119 HD
ATOM     18  H   UNL     1      -7.796   4.840   1.895  1.00  0.00     0.119 HD
ENDBRANCH  15  16
BRANCH  15  19
ATOM     19  CB  SER A   1      -8.000   4.483  -0.779  1.00  0.00     0.184 C 
BRANCH  19  20
ATOM     20  OG  SER A   1      -6.983   5.335  -1.246  1.00  0.00    -0.394 OA
ATOM     21  H   UNL     1      -6.929   6.090  -0.600  1.00  0.00     0.210 HD
ENDBRANCH  19  20
ENDBRANCH  15  19
ENDBRANCH  12  15
ENDBRANCH  10  11
ENDBRANCH   7  10
ENDBRANCH   5   6
BRANCH   5  22
ATOM     22  CB  LEU A   3      -3.681  -2.583   0.809  1.00  0.00     0.038 C 
BRANCH  22  23
ATOM     23  CG  LEU A   3      -5.157  -2.962   0.537  1.00  0.00    -0.015 C 
ATOM     24  CD1 LEU A   3      -5.255  -4.462   0.222  1.00  0.00     0.007 C 
ATOM     25  CD2 LEU A   3      -5.773  -2.155  -0.615  1.00  0.00     0.007 C 
ENDBRANCH  22  23
ENDBRANCH   5  22
ENDBRANCH   1   5
BRANCH   3  26
ATOM     26  CA  TYR A   4       0.392  -1.047   1.961  1.00  0.00     0.175 C 
BRANCH  26  27
ATOM     27  C   TYR A   4       1.448  -0.489   1.037  1.00  0.00     0.243 C 
ATOM     28  N   ARG A   5       2.659   0.057   1.587  1.00  0.00    -0.343 N 
ATOM     29  O   TYR A   4       1.286  -0.534  -0.214  1.00  0.00    -0.273 OA
ATOM     30  H   UNL     1       2.822  -0.027   2.615  1.00  0.00     0.164 HD
BRANCH  28  31
ATOM     31  CA  ARG A   5       3.701   0.651   0.742  1.00  0.00     0.171 C 
BRANCH  31  32
ATOM     32  C   ARG A   5       4.513  -0.437   0.092  1.00  0.00     0.243 C 
ATOM     33  N   ASN A   6       4.795  -0.391  -1.315  1.00  0.00    -0.341 N 
ATOM     34  O   ARG A   5       4.988  -1.367   0.803  1.00  0.00    -0.273 OA
ATOM     35  H   UNL     1       4.350   0.364  -1.885  1.00  0.00     0.164 HD
BRANCH  33  36
ATOM     36  CA  ASN A   6       5.667  -1.377  -1.970  1.00  0.00     0.201 C 
BRANCH  36  37
ATOM     37  C   ASN A   6       7.075  -1.285  -1.445  1.00  0.00     0.326 C 
ATOM     38  O   ASN A   6       7.553  -0.177  -1.077  1.00  0.00    -0.250 OA
BRANCH  37  39
ATOM     39  OXT ASN A   6       7.864  -2.428  -1.393  1.00  0.00    -0.480 OA
ATOM     40  H   UNL     1       8.812  -2.390  -1.040  1.00  0.00     0.296 HD
ENDBRANCH  37  39
ENDBRANCH  36  37
BRANCH  36  41
ATOM     41  CB  ASN A   6       5.634  -1.231  -3.505  1.00  0.00     0.136 C 
BRANCH  41  42
ATOM     42  CG  ASN A   6       6.170   0.088  -3.992  1.00  0.00     0.220 C 
ATOM     43  ND2 ASN A   6       7.571   0.267  -4.219  1.00  0.00    -0.370 N 
ATOM     44  OD1 ASN A   6       5.381   1.049  -4.201  1.00  0.00    -0.275 OA
ATOM     45  H   UNL     1       7.932   1.180  -4.577  1.00  0.00     0.159 HD
ATOM     46  H   UNL     1       8.244  -0.512  -4.039  1.00  0.00     0.159 HD
ENDBRANCH  41  42
ENDBRANCH  36  41
ENDBRANCH  33  36
ENDBRANCH  31  32
BRANCH  31  47
ATOM     47  CB  ARG A   5       4.637   1.569   1.560  1.00  0.00     0.037 C 
BRANCH  47  48
ATOM     48  CG  ARG A   5       3.919   2.706   2.320  1.00  0.00     0.024 C 
BRANCH  48  49
ATOM     49  CD  ARG A   5       3.000   3.585   1.457  1.00  0.00     0.116 C 
BRANCH  49  50
ATOM     50  NE  ARG A   5       3.724   4.235   0.363  1.00  0.00    -0.357 N 
ATOM     51  CZ  ARG A   5       3.073   5.009  -0.661  1.00  0.00     0.185 C 
ATOM     52  NH2 ARG A   5       3.829   5.457  -1.786  1.00  0.00    -0.370 N 
ATOM     53  H   UNL     1       4.761   4.127   0.295  1.00  0.00     0.163 HD
ATOM     54  H   UNL     1       4.840   5.211  -1.876  1.00  0.00     0.159 HD
ATOM     55  H   UNL     1       3.384   6.050  -2.522  1.00  0.00     0.159 HD
BRANCH  51  56
ATOM     56  NH1 ARG A   5       1.815   5.319  -0.581  1.00  0.00    -0.270 NA
ATOM     57  H   UNL     1       1.203   5.036   0.216  1.00  0.00     0.191 HD
ENDBRANCH  51  56
ENDBRANCH  49  50
ENDBRANCH  48  49
ENDBRANCH  47  48
ENDBRANCH  31  47
ENDBRANCH  28  31
ENDBRANCH  26  27
BRANCH  26  58
ATOM     58  CB  TYR A   4       0.801  -2.419   2.531  1.00  0.00     0.070 C 
BRANCH  58  59
ATOM     59  CG  TYR A   4       0.912  -3.487   1.469  1.00  0.00    -0.045 A 
ATOM     60  CD1 TYR A   4      -0.191  -4.299   1.159  1.00  0.00     0.007 A 
ATOM     61  CD2 TYR A   4       2.118  -3.676   0.773  1.00  0.00     0.007 A 
ATOM     62  CE1 TYR A   4      -0.087  -5.290   0.177  1.00  0.00     0.046 A 
ATOM     63  CE2 TYR A   4       2.220  -4.666  -0.209  1.00  0.00     0.046 A 
ATOM     64  CZ  TYR A   4       1.122  -5.477  -0.510  1.00  0.00     0.115 A 
BRANCH  64  65
ATOM     65  OH  TYR A   4       1.241  -6.467  -1.485  1.00  0.00    -0.508 OA
ATOM     66  H   UNL     1       0.467  -7.079  -1.711  1.00  0.00     0.293 HD
ENDBRANCH  64  65
ENDBRANCH  58  59
ENDBRANCH  26  58
ENDBRANCH   3  26
TORSDOF 27
