REMARK SMILES CC(C)C[C@H](NC(=O)[C@H](Cc1ccccc1)NC(=O)[C@@H](N)CO)C(=O)NCC(=O)N[C@@H](CCCNC(=N)N)C(=O)N[C@@H](C)C(=O)O
REMARK SMILES IDX 24 1 25 2 26 3 5 5 6 6 7 7 8 8 9 10 17 11 18 12 19 13 20 15
REMARK SMILES IDX 21 16 22 19 23 20 10 22 11 23 12 24 16 25 13 26 15 27 14 28
REMARK SMILES IDX 4 29 2 30 1 31 3 32 27 33 28 34 30 35 29 36 31 38 39 39
REMARK SMILES IDX 41 40 40 41 42 43 43 44 44 45 45 46 46 47 32 49 33 50 34 51
REMARK SMILES IDX 35 52 36 53 38 54 37 58
REMARK H PARENT 26 4 6 9 17 14 21 17 21 18 23 21 30 37 41 42 46 48 35 55 38 56
REMARK H PARENT 38 57 37 59
ROOT
ATOM      1  C   LEU A   3       0.564  -2.834  -1.743  1.00  0.00     0.243 C 
ATOM      2  O   LEU A   3       1.294  -3.127  -0.757  1.00  0.00    -0.273 OA
ATOM      3  N   GLY A   4      -0.688  -3.508  -1.935  1.00  0.00    -0.345 N 
ATOM      4  H   UNL     1      -1.260  -3.289  -2.783  1.00  0.00     0.164 HD
ENDROOT
BRANCH   1   5
ATOM      5  CA  LEU A   3       1.002  -1.776  -2.722  1.00  0.00     0.171 C 
BRANCH   5   6
ATOM      6  N   LEU A   3       2.100  -0.971  -2.174  1.00  0.00    -0.343 N 
ATOM      7  C   PHE A   2       1.880   0.118  -1.261  1.00  0.00     0.243 C 
ATOM      8  O   PHE A   2       0.708   0.429  -0.907  1.00  0.00    -0.273 OA
ATOM      9  H   UNL     1       3.088  -1.243  -2.371  1.00  0.00     0.164 HD
BRANCH   7  10
ATOM     10  CA  PHE A   2       3.057   0.857  -0.682  1.00  0.00     0.175 C 
BRANCH  10  11
ATOM     11  N   PHE A   2       2.769   2.293  -0.600  1.00  0.00    -0.343 N 
ATOM     12  C   SER A   1       2.882   3.150  -1.746  1.00  0.00     0.239 C 
ATOM     13  O   SER A   1       2.871   2.655  -2.906  1.00  0.00    -0.273 OA
ATOM     14  H   UNL     1       2.566   2.722   0.329  1.00  0.00     0.164 HD
BRANCH  12  15
ATOM     15  CA  SER A   1       3.050   4.643  -1.584  1.00  0.00     0.167 C 
BRANCH  15  16
ATOM     16  N   SER A   1       1.894   5.243  -0.912  1.00  0.00    -0.318 NA
ATOM     17  H   UNL     1       1.817   4.869   0.062  1.00  0.00     0.119 HD
ATOM     18  H   UNL     1       1.021   4.975  -1.422  1.00  0.00     0.119 HD
ENDBRANCH  15  16
BRANCH  15  19
ATOM     19  CB  SER A   1       4.340   4.959  -0.816  1.00  0.00     0.184 C 
BRANCH  19  20
ATOM     20  OG  SER A   1       4.538   6.346  -0.778  1.00  0.00    -0.394 OA
ATOM     21  H   UNL     1       5.426   6.487  -0.356  1.00  0.00     0.210 HD
ENDBRANCH  19  20
ENDBRANCH  15  19
ENDBRANCH  12  15
ENDBRANCH  10  11
BRANCH  10  22
ATOM     22  CB  PHE A   2       3.405   0.282   0.704  1.00  0.00     0.070 C 
BRANCH  22  23
ATOM     23  CG  PHE A   2       4.651   0.921   1.266  1.00  0.00    -0.045 A 
ATOM     24  CD1 PHE A   2       4.557   1.946   2.223  1.00  0.00     0.004 A 
ATOM     25  CD2 PHE A   2       5.917   0.537   0.795  1.00  0.00     0.004 A 
ATOM     26  CE1 PHE A   2       5.710   2.572   2.702  1.00  0.00     0.000 A 
ATOM     27  CE2 PHE A   2       7.070   1.162   1.280  1.00  0.00     0.000 A 
ATOM     28  CZ  PHE A   2       6.966   2.181   2.229  1.00  0.00     0.000 A 
ENDBRANCH  22  23
ENDBRANCH  10  22
ENDBRANCH   7  10
ENDBRANCH   5   6
BRANCH   5  29
ATOM     29  CB  LEU A   3       1.349  -2.327  -4.135  1.00  0.00     0.038 C 
BRANCH  29  30
ATOM     30  CG  LEU A   3       2.186  -3.633  -4.278  1.00  0.00    -0.015 C 
ATOM     31  CD1 LEU A   3       3.509  -3.618  -3.506  1.00  0.00     0.007 C 
ATOM     32  CD2 LEU A   3       1.389  -4.912  -3.980  1.00  0.00     0.007 C 
ENDBRANCH  29  30
ENDBRANCH   5  29
ENDBRANCH   1   5
BRANCH   3  33
ATOM     33  CA  GLY A   4      -1.202  -4.482  -0.976  1.00  0.00     0.216 C 
BRANCH  33  34
ATOM     34  C   GLY A   4      -1.829  -3.771   0.180  1.00  0.00     0.240 C 
ATOM     35  N   ARG A   5      -2.874  -2.820  -0.053  1.00  0.00    -0.343 N 
ATOM     36  O   GLY A   4      -1.451  -4.034   1.357  1.00  0.00    -0.273 OA
ATOM     37  H   UNL     1      -3.263  -2.751  -1.019  1.00  0.00     0.164 HD
BRANCH  35  38
ATOM     38  CA  ARG A   5      -3.423  -1.977   1.015  1.00  0.00     0.171 C 
BRANCH  38  39
ATOM     39  C   ARG A   5      -4.738  -1.377   0.575  1.00  0.00     0.243 C 
ATOM     40  N   ALA A   6      -5.917  -1.542   1.375  1.00  0.00    -0.341 N 
ATOM     41  O   ARG A   5      -4.786  -0.695  -0.487  1.00  0.00    -0.273 OA
ATOM     42  H   UNL     1      -5.857  -2.115   2.248  1.00  0.00     0.164 HD
BRANCH  40  43
ATOM     43  CA  ALA A   6      -7.148  -0.795   1.100  1.00  0.00     0.189 C 
ATOM     44  CB  ALA A   6      -8.345  -1.472   1.772  1.00  0.00     0.043 C 
BRANCH  43  45
ATOM     45  C   ALA A   6      -7.002   0.621   1.584  1.00  0.00     0.325 C 
ATOM     46  O   ALA A   6      -6.743   0.856   2.795  1.00  0.00    -0.250 OA
BRANCH  45  47
ATOM     47  OXT ALA A   6      -7.135   1.674   0.687  1.00  0.00    -0.480 OA
ATOM     48  H   UNL     1      -7.017   2.631   0.992  1.00  0.00     0.296 HD
ENDBRANCH  45  47
ENDBRANCH  43  45
ENDBRANCH  40  43
ENDBRANCH  38  39
BRANCH  38  49
ATOM     49  CB  ARG A   5      -2.413  -0.872   1.381  1.00  0.00     0.037 C 
BRANCH  49  50
ATOM     50  CG  ARG A   5      -2.866  -0.058   2.603  1.00  0.00     0.024 C 
BRANCH  50  51
ATOM     51  CD  ARG A   5      -1.838   1.020   2.957  1.00  0.00     0.116 C 
BRANCH  51  52
ATOM     52  NE  ARG A   5      -2.283   1.791   4.117  1.00  0.00    -0.357 N 
ATOM     53  CZ  ARG A   5      -3.317   2.786   4.053  1.00  0.00     0.185 C 
ATOM     54  NH2 ARG A   5      -3.676   3.508   5.232  1.00  0.00    -0.370 N 
ATOM     55  H   UNL     1      -1.787   1.648   5.024  1.00  0.00     0.163 HD
ATOM     56  H   UNL     1      -3.180   3.328   6.132  1.00  0.00     0.159 HD
ATOM     57  H   UNL     1      -4.447   4.215   5.221  1.00  0.00     0.159 HD
BRANCH  53  58
ATOM     58  NH1 ARG A   5      -3.917   3.039   2.931  1.00  0.00    -0.270 NA
ATOM     59  H   UNL     1      -4.671   3.759   2.859  1.00  0.00     0.191 HD
ENDBRANCH  53  58
ENDBRANCH  51  52
ENDBRANCH  50  51
ENDBRANCH  49  50
ENDBRANCH  38  49
ENDBRANCH  35  38
ENDBRANCH  33  34
ENDBRANCH   3  33
TORSDOF 24
