REMARK SMILES N=C(N)NCCC[C@H](NC(=O)[C@H](Cc1ccccc1)NC(=O)[C@H](CO)NC(=O)[C@H](Cc1ccccc1)NC(=O)[C@@H](N)CO)C(=O)N[C@@H](CC(N)=O)C(=O)O
REMARK SMILES IDX 21 1 22 2 20 3 23 5 26 6 27 7 28 8 29 10 37 11 38 12 39 13
REMARK SMILES IDX 40 15 41 16 42 19 43 20 30 22 31 23 32 24 36 25 33 26 35 27
REMARK SMILES IDX 34 28 24 29 25 30 12 32 10 33 9 34 11 35 8 37 44 38 46 39
REMARK SMILES IDX 45 40 47 42 52 43 53 44 54 45 48 47 49 48 50 49 51 50 7 53
REMARK SMILES IDX 6 54 5 55 4 56 2 57 3 58 1 62 13 64 14 65 15 66 19 67 16 68
REMARK SMILES IDX 18 69 17 70
REMARK H PARENT 20 4 26 9 37 14 41 17 41 18 43 21 25 31 9 36 46 41 54 46 50 51
REMARK H PARENT 50 52 4 59 3 60 3 61 1 63
ROOT
ATOM      1  C   SER A   3       1.442   0.241   0.399  1.00  0.00     0.245 C 
ATOM      2  O   SER A   3       1.192  -0.279  -0.723  1.00  0.00    -0.273 OA
ATOM      3  N   PHE A   4       0.621  -0.070   1.535  1.00  0.00    -0.342 N 
ATOM      4  H   UNL     1       0.869   0.358   2.457  1.00  0.00     0.164 HD
ENDROOT
BRANCH   1   5
ATOM      5  CA  SER A   3       2.596   1.203   0.534  1.00  0.00     0.197 C 
BRANCH   5   6
ATOM      6  N   SER A   3       3.846   0.544   0.145  1.00  0.00    -0.340 N 
ATOM      7  C   PHE A   2       5.093   0.802   0.808  1.00  0.00     0.243 C 
ATOM      8  O   PHE A   2       5.112   1.441   1.895  1.00  0.00    -0.273 OA
ATOM      9  H   UNL     1       3.864  -0.003  -0.745  1.00  0.00     0.164 HD
BRANCH   7  10
ATOM     10  CA  PHE A   2       6.377   0.268   0.234  1.00  0.00     0.175 C 
BRANCH  10  11
ATOM     11  N   PHE A   2       7.458   1.234   0.457  1.00  0.00    -0.343 N 
ATOM     12  C   SER A   1       8.005   2.048  -0.591  1.00  0.00     0.239 C 
ATOM     13  O   SER A   1       7.471   2.056  -1.734  1.00  0.00    -0.273 OA
ATOM     14  H   UNL     1       7.817   1.361   1.430  1.00  0.00     0.164 HD
BRANCH  12  15
ATOM     15  CA  SER A   1       9.203   2.922  -0.318  1.00  0.00     0.167 C 
BRANCH  15  16
ATOM     16  N   SER A   1      10.264   2.678  -1.300  1.00  0.00    -0.318 NA
ATOM     17  H   UNL     1       9.903   2.865  -2.263  1.00  0.00     0.119 HD
ATOM     18  H   UNL     1      10.533   1.667  -1.255  1.00  0.00     0.119 HD
ENDBRANCH  15  16
BRANCH  15  19
ATOM     19  CB  SER A   1       8.797   4.402  -0.320  1.00  0.00     0.184 C 
BRANCH  19  20
ATOM     20  OG  SER A   1       9.878   5.208   0.064  1.00  0.00    -0.394 OA
ATOM     21  H   UNL     1      10.439   5.339  -0.746  1.00  0.00     0.210 HD
ENDBRANCH  19  20
ENDBRANCH  15  19
ENDBRANCH  12  15
ENDBRANCH  10  11
BRANCH  10  22
ATOM     22  CB  PHE A   2       6.730  -1.082   0.878  1.00  0.00     0.070 C 
BRANCH  22  23
ATOM     23  CG  PHE A   2       7.985  -1.660   0.273  1.00  0.00    -0.045 A 
ATOM     24  CD1 PHE A   2       9.239  -1.401   0.854  1.00  0.00     0.004 A 
ATOM     25  CD2 PHE A   2       7.921  -2.395  -0.922  1.00  0.00     0.004 A 
ATOM     26  CE1 PHE A   2      10.407  -1.887   0.260  1.00  0.00     0.000 A 
ATOM     27  CE2 PHE A   2       9.091  -2.885  -1.511  1.00  0.00     0.000 A 
ATOM     28  CZ  PHE A   2      10.333  -2.633  -0.920  1.00  0.00     0.000 A 
ENDBRANCH  22  23
ENDBRANCH  10  22
ENDBRANCH   7  10
ENDBRANCH   5   6
BRANCH   5  29
ATOM     29  CB  SER A   3       2.376   2.446  -0.334  1.00  0.00     0.191 C 
BRANCH  29  30
ATOM     30  OG  SER A   3       1.209   3.112   0.068  1.00  0.00    -0.394 OA
ATOM     31  H   UNL     1       1.112   3.889  -0.542  1.00  0.00     0.210 HD
ENDBRANCH  29  30
ENDBRANCH   5  29
ENDBRANCH   1   5
BRANCH   3  32
ATOM     32  CA  PHE A   4      -0.674  -0.746   1.408  1.00  0.00     0.175 C 
BRANCH  32  33
ATOM     33  C   PHE A   4      -1.751   0.272   1.130  1.00  0.00     0.243 C 
ATOM     34  N   ARG A   5      -2.787  -0.016   0.178  1.00  0.00    -0.343 N 
ATOM     35  O   PHE A   4      -1.763   1.358   1.772  1.00  0.00    -0.273 OA
ATOM     36  H   UNL     1      -2.832  -0.975  -0.236  1.00  0.00     0.164 HD
BRANCH  34  37
ATOM     37  CA  ARG A   5      -3.863   0.931  -0.116  1.00  0.00     0.171 C 
BRANCH  37  38
ATOM     38  C   ARG A   5      -4.983   0.741   0.876  1.00  0.00     0.243 C 
ATOM     39  N   ASN A   6      -5.829  -0.418   0.815  1.00  0.00    -0.341 N 
ATOM     40  O   ARG A   5      -5.169   1.613   1.765  1.00  0.00    -0.273 OA
ATOM     41  H   UNL     1      -5.502  -1.239   0.258  1.00  0.00     0.164 HD
BRANCH  39  42
ATOM     42  CA  ASN A   6      -7.115  -0.482   1.521  1.00  0.00     0.201 C 
BRANCH  42  43
ATOM     43  C   ASN A   6      -7.654  -1.888   1.505  1.00  0.00     0.326 C 
ATOM     44  O   ASN A   6      -7.786  -2.507   0.414  1.00  0.00    -0.250 OA
BRANCH  43  45
ATOM     45  OXT ASN A   6      -8.045  -2.494   2.695  1.00  0.00    -0.480 OA
ATOM     46  H   UNL     1      -8.411  -3.440   2.700  1.00  0.00     0.296 HD
ENDBRANCH  43  45
ENDBRANCH  42  43
BRANCH  42  47
ATOM     47  CB  ASN A   6      -8.124   0.491   0.882  1.00  0.00     0.136 C 
BRANCH  47  48
ATOM     48  CG  ASN A   6      -9.384   0.589   1.693  1.00  0.00     0.220 C 
ATOM     49  ND2 ASN A   6      -9.433   1.427   2.848  1.00  0.00    -0.370 N 
ATOM     50  OD1 ASN A   6     -10.389  -0.104   1.379  1.00  0.00    -0.275 OA
ATOM     51  H   UNL     1     -10.293   1.462   3.436  1.00  0.00     0.159 HD
ATOM     52  H   UNL     1      -8.606   2.004   3.122  1.00  0.00     0.159 HD
ENDBRANCH  47  48
ENDBRANCH  42  47
ENDBRANCH  39  42
ENDBRANCH  37  38
BRANCH  37  53
ATOM     53  CB  ARG A   5      -4.340   0.754  -1.572  1.00  0.00     0.037 C 
BRANCH  53  54
ATOM     54  CG  ARG A   5      -5.400   1.794  -1.971  1.00  0.00     0.024 C 
BRANCH  54  55
ATOM     55  CD  ARG A   5      -5.880   1.594  -3.412  1.00  0.00     0.116 C 
BRANCH  55  56
ATOM     56  NE  ARG A   5      -6.645   0.350  -3.534  1.00  0.00    -0.357 N 
ATOM     57  CZ  ARG A   5      -6.135  -0.838  -4.159  1.00  0.00     0.185 C 
ATOM     58  NH2 ARG A   5      -6.934  -2.025  -4.175  1.00  0.00    -0.370 N 
ATOM     59  H   UNL     1      -7.581   0.306  -3.071  1.00  0.00     0.163 HD
ATOM     60  H   UNL     1      -7.881  -2.030  -3.737  1.00  0.00     0.159 HD
ATOM     61  H   UNL     1      -6.585  -2.899  -4.626  1.00  0.00     0.159 HD
BRANCH  57  62
ATOM     62  NH1 ARG A   5      -4.958  -0.842  -4.702  1.00  0.00    -0.270 NA
ATOM     63  H   UNL     1      -4.569  -1.696  -5.161  1.00  0.00     0.191 HD
ENDBRANCH  57  62
ENDBRANCH  55  56
ENDBRANCH  54  55
ENDBRANCH  53  54
ENDBRANCH  37  53
ENDBRANCH  34  37
ENDBRANCH  32  33
BRANCH  32  64
ATOM     64  CB  PHE A   4      -0.978  -1.537   2.694  1.00  0.00     0.070 C 
BRANCH  64  65
ATOM     65  CG  PHE A   4      -2.283  -2.288   2.607  1.00  0.00    -0.045 A 
ATOM     66  CD1 PHE A   4      -3.416  -1.825   3.299  1.00  0.00     0.004 A 
ATOM     67  CD2 PHE A   4      -2.389  -3.436   1.805  1.00  0.00     0.004 A 
ATOM     68  CE1 PHE A   4      -4.627  -2.516   3.209  1.00  0.00     0.000 A 
ATOM     69  CE2 PHE A   4      -3.607  -4.116   1.706  1.00  0.00     0.000 A 
ATOM     70  CZ  PHE A   4      -4.723  -3.659   2.411  1.00  0.00     0.000 A 
ENDBRANCH  64  65
ENDBRANCH  32  64
ENDBRANCH   3  32
TORSDOF 28
