REMARK SMILES CC[C@H](C)[C@H](NC(=O)[C@H](Cc1ccccc1)NC(=O)[C@@H](N)CO)C(=O)N[C@@H](CCCNC(=N)N)C(=O)N[C@@H](CCCNC(=N)N)C(=O)N[C@@H](CC(N)=O)C(=O)O
REMARK SMILES IDX 24 1 25 2 26 3 5 5 6 6 7 7 8 8 9 10 17 11 18 12 19 13 20 15
REMARK SMILES IDX 21 16 22 19 23 20 10 22 11 23 12 24 16 25 13 26 15 27 14 28
REMARK SMILES IDX 3 29 4 30 2 31 1 32 27 33 35 34 37 35 36 36 38 38 46 39
REMARK SMILES IDX 48 40 47 41 49 43 54 44 55 45 56 46 50 48 51 49 52 50 53 51
REMARK SMILES IDX 39 54 40 55 41 56 42 57 43 58 45 59 44 63 28 65 29 66 30 67
REMARK SMILES IDX 31 68 32 69 34 70 33 74
REMARK H PARENT 26 4 6 9 17 14 21 17 21 18 23 21 37 37 48 42 56 47 52 52 52 53
REMARK H PARENT 42 60 45 61 45 62 44 64 31 71 34 72 34 73 33 75
ROOT
ATOM      1  C   ILE A   3      -0.480  -0.358  -0.958  1.00  0.00     0.243 C 
ATOM      2  O   ILE A   3      -0.316  -0.302   0.292  1.00  0.00    -0.273 OA
ATOM      3  N   ARG A   4       0.587  -0.831  -1.793  1.00  0.00    -0.343 N 
ATOM      4  H   UNL     1       0.475  -0.782  -2.831  1.00  0.00     0.164 HD
ENDROOT
BRANCH   1   5
ATOM      5  CA  ILE A   3      -1.814   0.014  -1.567  1.00  0.00     0.174 C 
BRANCH   5   6
ATOM      6  N   ILE A   3      -2.814   0.254  -0.517  1.00  0.00    -0.342 N 
ATOM      7  C   PHE A   2      -4.117  -0.349  -0.521  1.00  0.00     0.243 C 
ATOM      8  O   PHE A   2      -4.434  -1.188  -1.410  1.00  0.00    -0.273 OA
ATOM      9  H   UNL     1      -2.587   0.936   0.244  1.00  0.00     0.164 HD
BRANCH   7  10
ATOM     10  CA  PHE A   2      -5.091  -0.026   0.579  1.00  0.00     0.175 C 
BRANCH  10  11
ATOM     11  N   PHE A   2      -6.450   0.049   0.037  1.00  0.00    -0.343 N 
ATOM     12  C   SER A   1      -6.971   1.250  -0.550  1.00  0.00     0.239 C 
ATOM     13  O   SER A   1      -6.192   2.196  -0.843  1.00  0.00    -0.273 OA
ATOM     14  H   UNL     1      -7.051  -0.806   0.061  1.00  0.00     0.164 HD
BRANCH  12  15
ATOM     15  CA  SER A   1      -8.446   1.390  -0.846  1.00  0.00     0.167 C 
BRANCH  15  16
ATOM     16  N   SER A   1      -8.835   0.549  -1.980  1.00  0.00    -0.318 NA
ATOM     17  H   UNL     1      -8.316   0.874  -2.827  1.00  0.00     0.119 HD
ATOM     18  H   UNL     1      -8.553  -0.440  -1.798  1.00  0.00     0.119 HD
ENDBRANCH  15  16
BRANCH  15  19
ATOM     19  CB  SER A   1      -9.299   1.055   0.388  1.00  0.00     0.184 C 
BRANCH  19  20
ATOM     20  OG  SER A   1     -10.652   1.324   0.136  1.00  0.00    -0.394 OA
ATOM     21  H   UNL     1     -10.766   2.305   0.229  1.00  0.00     0.210 HD
ENDBRANCH  19  20
ENDBRANCH  15  19
ENDBRANCH  12  15
ENDBRANCH  10  11
BRANCH  10  22
ATOM     22  CB  PHE A   2      -4.999  -1.091   1.685  1.00  0.00     0.070 C 
BRANCH  22  23
ATOM     23  CG  PHE A   2      -5.911  -0.760   2.839  1.00  0.00    -0.045 A 
ATOM     24  CD1 PHE A   2      -7.156  -1.400   2.976  1.00  0.00     0.004 A 
ATOM     25  CD2 PHE A   2      -5.544   0.232   3.762  1.00  0.00     0.004 A 
ATOM     26  CE1 PHE A   2      -8.010  -1.061   4.030  1.00  0.00     0.000 A 
ATOM     27  CE2 PHE A   2      -6.403   0.570   4.813  1.00  0.00     0.000 A 
ATOM     28  CZ  PHE A   2      -7.634  -0.077   4.948  1.00  0.00     0.000 A 
ENDBRANCH  22  23
ENDBRANCH  10  22
ENDBRANCH   7  10
ENDBRANCH   5   6
BRANCH   5  29
ATOM     29  CB  ILE A   3      -1.724   1.226  -2.546  1.00  0.00     0.018 C 
ATOM     30  CG1 ILE A   3      -2.956   1.248  -3.468  1.00  0.00     0.010 C 
BRANCH  29  31
ATOM     31  CG2 ILE A   3      -1.581   2.614  -1.865  1.00  0.00     0.002 C 
ATOM     32  CD1 ILE A   3      -0.270   2.796  -1.101  1.00  0.00     0.004 C 
ENDBRANCH  29  31
ENDBRANCH   5  29
ENDBRANCH   1   5
BRANCH   3  33
ATOM     33  CA  ARG A   4       1.842  -1.353  -1.239  1.00  0.00     0.171 C 
BRANCH  33  34
ATOM     34  C   ARG A   4       2.794  -0.222  -0.959  1.00  0.00     0.243 C 
ATOM     35  N   ARG A   5       3.740  -0.331   0.114  1.00  0.00    -0.343 N 
ATOM     36  O   ARG A   4       2.788   0.802  -1.696  1.00  0.00    -0.273 OA
ATOM     37  H   UNL     1       3.839  -1.253   0.597  1.00  0.00     0.164 HD
BRANCH  35  38
ATOM     38  CA  ARG A   5       4.537   0.816   0.563  1.00  0.00     0.171 C 
BRANCH  38  39
ATOM     39  C   ARG A   5       5.628   1.104  -0.433  1.00  0.00     0.243 C 
ATOM     40  N   ASN A   6       5.890   2.455  -0.845  1.00  0.00    -0.341 N 
ATOM     41  O   ARG A   5       6.338   0.154  -0.869  1.00  0.00    -0.273 OA
ATOM     42  H   UNL     1       5.295   3.219  -0.451  1.00  0.00     0.164 HD
BRANCH  40  43
ATOM     43  CA  ASN A   6       7.088   2.831  -1.601  1.00  0.00     0.201 C 
BRANCH  43  44
ATOM     44  C   ASN A   6       8.159   3.274  -0.644  1.00  0.00     0.326 C 
ATOM     45  O   ASN A   6       7.920   4.171   0.209  1.00  0.00    -0.250 OA
BRANCH  44  46
ATOM     46  OXT ASN A   6       9.430   2.711  -0.720  1.00  0.00    -0.480 OA
ATOM     47  H   UNL     1      10.164   3.002  -0.087  1.00  0.00     0.296 HD
ENDBRANCH  44  46
ENDBRANCH  43  44
BRANCH  43  48
ATOM     48  CB  ASN A   6       6.744   3.943  -2.607  1.00  0.00     0.136 C 
BRANCH  48  49
ATOM     49  CG  ASN A   6       7.912   4.276  -3.492  1.00  0.00     0.220 C 
ATOM     50  ND2 ASN A   6       8.275   3.414  -4.571  1.00  0.00    -0.370 N 
ATOM     51  OD1 ASN A   6       8.594   5.309  -3.262  1.00  0.00    -0.275 OA
ATOM     52  H   UNL     1       9.100   3.639  -5.170  1.00  0.00     0.159 HD
ATOM     53  H   UNL     1       7.720   2.551  -4.774  1.00  0.00     0.159 HD
ENDBRANCH  48  49
ENDBRANCH  43  48
ENDBRANCH  40  43
ENDBRANCH  38  39
BRANCH  38  54
ATOM     54  CB  ARG A   5       5.162   0.554   1.945  1.00  0.00     0.037 C 
BRANCH  54  55
ATOM     55  CG  ARG A   5       4.096   0.421   3.046  1.00  0.00     0.024 C 
BRANCH  55  56
ATOM     56  CD  ARG A   5       4.729   0.250   4.433  1.00  0.00     0.116 C 
BRANCH  56  57
ATOM     57  NE  ARG A   5       5.395  -1.048   4.568  1.00  0.00    -0.357 N 
ATOM     58  CZ  ARG A   5       6.156  -1.428   5.728  1.00  0.00     0.185 C 
ATOM     59  NH2 ARG A   5       6.858  -2.672   5.729  1.00  0.00    -0.370 N 
ATOM     60  H   UNL     1       5.328  -1.742   3.789  1.00  0.00     0.163 HD
ATOM     61  H   UNL     1       6.829  -3.299   4.894  1.00  0.00     0.159 HD
ATOM     62  H   UNL     1       7.408  -2.969   6.566  1.00  0.00     0.159 HD
BRANCH  58  63
ATOM     63  NH1 ARG A   5       6.214  -0.672   6.781  1.00  0.00    -0.270 NA
ATOM     64  H   UNL     1       5.722   0.245   6.857  1.00  0.00     0.191 HD
ENDBRANCH  58  63
ENDBRANCH  56  57
ENDBRANCH  55  56
ENDBRANCH  54  55
ENDBRANCH  38  54
ENDBRANCH  35  38
ENDBRANCH  33  34
BRANCH  33  65
ATOM     65  CB  ARG A   4       2.496  -2.365  -2.202  1.00  0.00     0.037 C 
BRANCH  65  66
ATOM     66  CG  ARG A   4       1.558  -3.515  -2.616  1.00  0.00     0.024 C 
BRANCH  66  67
ATOM     67  CD  ARG A   4       1.173  -4.429  -1.445  1.00  0.00     0.116 C 
BRANCH  67  68
ATOM     68  NE  ARG A   4       0.296  -5.502  -1.912  1.00  0.00    -0.357 N 
ATOM     69  CZ  ARG A   4      -1.093  -5.297  -2.212  1.00  0.00     0.185 C 
ATOM     70  NH2 ARG A   4      -1.874  -6.385  -2.710  1.00  0.00    -0.370 N 
ATOM     71  H   UNL     1       0.688  -6.467  -1.983  1.00  0.00     0.163 HD
ATOM     72  H   UNL     1      -2.886  -6.262  -2.934  1.00  0.00     0.159 HD
ATOM     73  H   UNL     1      -1.436  -7.318  -2.866  1.00  0.00     0.159 HD
BRANCH  69  74
ATOM     74  NH1 ARG A   4      -1.643  -4.138  -2.023  1.00  0.00    -0.270 NA
ATOM     75  H   UNL     1      -2.652  -3.965  -2.230  1.00  0.00     0.191 HD
ENDBRANCH  69  74
ENDBRANCH  67  68
ENDBRANCH  66  67
ENDBRANCH  65  66
ENDBRANCH  33  65
ENDBRANCH   3  33
TORSDOF 31
