REMARK SMILES CC(C)C[C@H](NC(=O)[C@H](C)NC(=O)[C@H](Cc1ccccc1)NC(=O)[C@H](C)N)C(=O)N[C@@H](CCCNC(=N)N)C(=O)N[C@@H](CC(N)=O)C(=O)O
REMARK SMILES IDX 5 1 6 2 7 3 8 4 9 6 10 7 11 8 12 9 13 10 14 12 22 13 23 14
REMARK SMILES IDX 24 15 25 17 26 18 27 19 15 22 16 23 17 24 21 25 18 26 20 27
REMARK SMILES IDX 19 28 28 29 30 30 29 31 31 33 39 34 41 35 40 36 42 38 47 39
REMARK SMILES IDX 48 40 49 41 43 43 44 44 45 45 46 46 32 49 33 50 34 51 35 52
REMARK SMILES IDX 36 53 38 54 37 58 4 60 2 61 1 62 3 63
REMARK H PARENT 6 5 11 11 22 16 27 20 27 21 30 32 41 37 49 42 45 47 45 48
REMARK H PARENT 35 55 38 56 38 57 37 59
ROOT
ATOM      1  CA  LEU A   4      21.346   8.759  -8.136  1.00  0.00     0.171 C 
ENDROOT
BRANCH   1   2
ATOM      2  N   LEU A   4      20.560   9.920  -7.772  1.00  0.00    -0.343 N 
ATOM      3  C   ALA A   3      20.046  10.101  -6.461  1.00  0.00     0.242 C 
ATOM      4  O   ALA A   3      20.175   9.199  -5.586  1.00  0.00    -0.273 OA
ATOM      5  H   UNL     1      20.391  10.655  -8.497  1.00  0.00     0.164 HD
BRANCH   3   6
ATOM      6  CA  ALA A   3      19.341  11.374  -6.145  1.00  0.00     0.168 C 
ATOM      7  CB  ALA A   3      20.180  12.246  -5.220  1.00  0.00     0.041 C 
BRANCH   6   8
ATOM      8  N   ALA A   3      18.095  11.059  -5.494  1.00  0.00    -0.343 N 
ATOM      9  C   PHE A   2      16.890  11.753  -5.774  1.00  0.00     0.243 C 
ATOM     10  O   PHE A   2      16.905  12.794  -6.487  1.00  0.00    -0.273 OA
ATOM     11  H   UNL     1      18.186  10.555  -4.585  1.00  0.00     0.164 HD
BRANCH   9  12
ATOM     12  CA  PHE A   2      15.650  11.317  -5.069  1.00  0.00     0.175 C 
BRANCH  12  13
ATOM     13  N   PHE A   2      14.464  11.749  -5.794  1.00  0.00    -0.343 N 
ATOM     14  C   ALA A   1      13.906  13.049  -5.629  1.00  0.00     0.237 C 
ATOM     15  O   ALA A   1      14.438  13.860  -4.821  1.00  0.00    -0.273 OA
ATOM     16  H   UNL     1      13.996  11.061  -6.424  1.00  0.00     0.164 HD
BRANCH  14  17
ATOM     17  CA  ALA A   1      12.651  13.422  -6.377  1.00  0.00     0.138 C 
ATOM     18  CB  ALA A   1      12.684  12.893  -7.822  1.00  0.00     0.035 C 
BRANCH  17  19
ATOM     19  N   ALA A   1      12.483  14.875  -6.391  1.00  0.00    -0.320 NA
ATOM     20  H   UNL     1      11.593  15.105  -6.890  1.00  0.00     0.119 HD
ATOM     21  H   UNL     1      12.336  15.201  -5.407  1.00  0.00     0.119 HD
ENDBRANCH  17  19
ENDBRANCH  14  17
ENDBRANCH  12  13
BRANCH  12  22
ATOM     22  CB  PHE A   2      15.610   9.779  -4.901  1.00  0.00     0.070 C 
BRANCH  22  23
ATOM     23  CG  PHE A   2      14.444   9.293  -4.094  1.00  0.00    -0.045 A 
ATOM     24  CD1 PHE A   2      13.904  10.049  -3.036  1.00  0.00     0.004 A 
ATOM     25  CD2 PHE A   2      13.970   7.992  -4.312  1.00  0.00     0.004 A 
ATOM     26  CE1 PHE A   2      12.871   9.537  -2.261  1.00  0.00     0.000 A 
ATOM     27  CE2 PHE A   2      12.942   7.478  -3.522  1.00  0.00     0.000 A 
ATOM     28  CZ  PHE A   2      12.389   8.254  -2.502  1.00  0.00     0.000 A 
ENDBRANCH  22  23
ENDBRANCH  12  22
ENDBRANCH   9  12
ENDBRANCH   6   8
ENDBRANCH   3   6
ENDBRANCH   1   2
BRANCH   1  29
ATOM     29  C   LEU A   4      22.712   9.216  -8.518  1.00  0.00     0.243 C 
ATOM     30  N   ARG A   5      23.822   8.720  -7.784  1.00  0.00    -0.343 N 
ATOM     31  O   LEU A   4      22.875  10.032  -9.466  1.00  0.00    -0.273 OA
ATOM     32  H   UNL     1      23.667   8.029  -7.015  1.00  0.00     0.164 HD
BRANCH  30  33
ATOM     33  CA  ARG A   5      25.185   9.122  -8.073  1.00  0.00     0.171 C 
BRANCH  33  34
ATOM     34  C   ARG A   5      25.899   7.968  -8.686  1.00  0.00     0.243 C 
ATOM     35  N   ASN A   6      25.913   7.864 -10.102  1.00  0.00    -0.341 N 
ATOM     36  O   ARG A   5      26.447   7.087  -7.969  1.00  0.00    -0.273 OA
ATOM     37  H   UNL     1      25.489   8.647 -10.651  1.00  0.00     0.164 HD
BRANCH  35  38
ATOM     38  CA  ASN A   6      26.542   6.751 -10.804  1.00  0.00     0.201 C 
BRANCH  38  39
ATOM     39  C   ASN A   6      27.993   6.642 -10.416  1.00  0.00     0.326 C 
ATOM     40  O   ASN A   6      28.794   7.579 -10.677  1.00  0.00    -0.250 OA
BRANCH  39  41
ATOM     41  OXT ASN A   6      28.451   5.499  -9.768  1.00  0.00    -0.480 OA
ATOM     42  H   UNL     1      29.424   5.409  -9.499  1.00  0.00     0.296 HD
ENDBRANCH  39  41
ENDBRANCH  38  39
BRANCH  38  43
ATOM     43  CB  ASN A   6      26.424   6.946 -12.323  1.00  0.00     0.136 C 
BRANCH  43  44
ATOM     44  CG  ASN A   6      25.010   7.180 -12.773  1.00  0.00     0.220 C 
ATOM     45  ND2 ASN A   6      24.753   8.090 -13.833  1.00  0.00    -0.370 N 
ATOM     46  OD1 ASN A   6      24.053   6.558 -12.243  1.00  0.00    -0.275 OA
ATOM     47  H   UNL     1      23.775   8.258 -14.156  1.00  0.00     0.159 HD
ATOM     48  H   UNL     1      25.533   8.600 -14.306  1.00  0.00     0.159 HD
ENDBRANCH  43  44
ENDBRANCH  38  43
ENDBRANCH  35  38
ENDBRANCH  33  34
BRANCH  33  49
ATOM     49  CB  ARG A   5      25.863   9.605  -6.796  1.00  0.00     0.037 C 
BRANCH  49  50
ATOM     50  CG  ARG A   5      25.167  10.861  -6.272  1.00  0.00     0.024 C 
BRANCH  50  51
ATOM     51  CD  ARG A   5      25.842  11.391  -5.015  1.00  0.00     0.116 C 
BRANCH  51  52
ATOM     52  NE  ARG A   5      25.378  10.685  -3.823  1.00  0.00    -0.357 N 
ATOM     53  CZ  ARG A   5      25.469  11.279  -2.527  1.00  0.00     0.185 C 
ATOM     54  NH2 ARG A   5      26.106  12.541  -2.350  1.00  0.00    -0.370 N 
ATOM     55  H   UNL     1      24.904   9.757  -3.922  1.00  0.00     0.163 HD
ATOM     56  H   UNL     1      26.693  12.983  -3.090  1.00  0.00     0.159 HD
ATOM     57  H   UNL     1      26.084  13.006  -1.415  1.00  0.00     0.159 HD
BRANCH  53  58
ATOM     58  NH1 ARG A   5      24.959  10.678  -1.500  1.00  0.00    -0.270 NA
ATOM     59  H   UNL     1      24.478   9.755  -1.584  1.00  0.00     0.191 HD
ENDBRANCH  53  58
ENDBRANCH  51  52
ENDBRANCH  50  51
ENDBRANCH  49  50
ENDBRANCH  33  49
ENDBRANCH  30  33
ENDBRANCH   1  29
BRANCH   1  60
ATOM     60  CB  LEU A   4      20.654   7.998  -9.270  1.00  0.00     0.038 C 
BRANCH  60  61
ATOM     61  CG  LEU A   4      21.448   6.771  -9.768  1.00  0.00    -0.015 C 
ATOM     62  CD1 LEU A   4      21.762   5.778  -8.639  1.00  0.00     0.007 C 
ATOM     63  CD2 LEU A   4      20.662   6.067 -10.877  1.00  0.00     0.007 C 
ENDBRANCH  60  61
ENDBRANCH   1  60
TORSDOF 24
