REMARK SMILES C[C@H](NC(=O)[C@H](CO)NC(=O)[C@H](Cc1ccccc1)NC(=O)[C@@H](N)CO)C(=O)N[C@@H](CCCNC(=N)N)C(=O)N[C@@H](CC(N)=O)C(=O)O
REMARK SMILES IDX 4 1 5 2 3 3 6 5 9 6 10 7 11 8 12 10 20 11 21 12 22 13 23 15
REMARK SMILES IDX 24 16 25 19 26 20 13 22 14 23 15 24 19 25 16 26 18 27 17 28
REMARK SMILES IDX 7 29 8 30 2 32 1 33 27 34 29 35 28 36 30 38 38 39 40 40
REMARK SMILES IDX 39 41 41 43 46 44 47 45 48 46 42 48 43 49 44 50 45 51 31 54
REMARK SMILES IDX 32 55 33 56 34 57 35 58 37 59 36 63
REMARK H PARENT 3 4 9 9 20 14 24 17 24 18 26 21 8 31 29 37 40 42 48 47 44 52
REMARK H PARENT 44 53 34 60 37 61 37 62 36 64
ROOT
ATOM      1  C   SER A   3       0.781  -0.636   0.829  1.00  0.00     0.245 C 
ATOM      2  O   SER A   3       0.520  -0.980   2.017  1.00  0.00    -0.273 OA
ATOM      3  N   ALA A   4      -0.168   0.137   0.074  1.00  0.00    -0.343 N 
ATOM      4  H   UNL     1      -0.012   0.258  -0.953  1.00  0.00     0.164 HD
ENDROOT
BRANCH   1   5
ATOM      5  CA  SER A   3       2.088  -1.058   0.201  1.00  0.00     0.197 C 
BRANCH   5   6
ATOM      6  N   SER A   3       3.215  -0.672   1.058  1.00  0.00    -0.340 N 
ATOM      7  C   PHE A   2       4.555  -0.549   0.562  1.00  0.00     0.243 C 
ATOM      8  O   PHE A   2       4.803  -0.767  -0.656  1.00  0.00    -0.273 OA
ATOM      9  H   UNL     1       3.044  -0.450   2.065  1.00  0.00     0.164 HD
BRANCH   7  10
ATOM     10  CA  PHE A   2       5.654  -0.092   1.486  1.00  0.00     0.175 C 
BRANCH  10  11
ATOM     11  N   PHE A   2       6.966  -0.509   0.978  1.00  0.00    -0.343 N 
ATOM     12  C   SER A   1       7.574  -1.755   1.355  1.00  0.00     0.239 C 
ATOM     13  O   SER A   1       6.960  -2.556   2.111  1.00  0.00    -0.273 OA
ATOM     14  H   UNL     1       7.391   0.029   0.192  1.00  0.00     0.164 HD
BRANCH  12  15
ATOM     15  CA  SER A   1       8.939  -2.139   0.833  1.00  0.00     0.167 C 
BRANCH  15  16
ATOM     16  N   SER A   1       8.883  -2.465  -0.593  1.00  0.00    -0.318 NA
ATOM     17  H   UNL     1       8.260  -3.294  -0.722  1.00  0.00     0.119 HD
ATOM     18  H   UNL     1       8.456  -1.670  -1.122  1.00  0.00     0.119 HD
ENDBRANCH  15  16
BRANCH  15  19
ATOM     19  CB  SER A   1       9.977  -1.034   1.082  1.00  0.00     0.184 C 
BRANCH  19  20
ATOM     20  OG  SER A   1      10.036  -0.701   2.443  1.00  0.00    -0.394 OA
ATOM     21  H   UNL     1      10.526  -1.438   2.896  1.00  0.00     0.210 HD
ENDBRANCH  19  20
ENDBRANCH  15  19
ENDBRANCH  12  15
ENDBRANCH  10  11
BRANCH  10  22
ATOM     22  CB  PHE A   2       5.610   1.432   1.729  1.00  0.00     0.070 C 
BRANCH  22  23
ATOM     23  CG  PHE A   2       5.746   2.254   0.468  1.00  0.00    -0.045 A 
ATOM     24  CD1 PHE A   2       7.003   2.735   0.061  1.00  0.00     0.004 A 
ATOM     25  CD2 PHE A   2       4.613   2.546  -0.312  1.00  0.00     0.004 A 
ATOM     26  CE1 PHE A   2       7.123   3.487  -1.111  1.00  0.00     0.000 A 
ATOM     27  CE2 PHE A   2       4.738   3.302  -1.481  1.00  0.00     0.000 A 
ATOM     28  CZ  PHE A   2       5.992   3.771  -1.881  1.00  0.00     0.000 A 
ENDBRANCH  22  23
ENDBRANCH  10  22
ENDBRANCH   7  10
ENDBRANCH   5   6
BRANCH   5  29
ATOM     29  CB  SER A   3       2.106  -2.569  -0.066  1.00  0.00     0.191 C 
BRANCH  29  30
ATOM     30  OG  SER A   3       2.089  -3.284   1.140  1.00  0.00    -0.394 OA
ATOM     31  H   UNL     1       2.141  -4.244   0.892  1.00  0.00     0.210 HD
ENDBRANCH  29  30
ENDBRANCH   5  29
ENDBRANCH   1   5
BRANCH   3  32
ATOM     32  CA  ALA A   4      -1.295   0.838   0.696  1.00  0.00     0.168 C 
ATOM     33  CB  ALA A   4      -1.168   2.343   0.448  1.00  0.00     0.041 C 
BRANCH  32  34
ATOM     34  C   ALA A   4      -2.595   0.326   0.137  1.00  0.00     0.242 C 
ATOM     35  N   ARG A   5      -3.671  -0.025   1.018  1.00  0.00    -0.343 N 
ATOM     36  O   ALA A   4      -2.749   0.250  -1.114  1.00  0.00    -0.273 OA
ATOM     37  H   UNL     1      -3.535   0.106   2.047  1.00  0.00     0.164 HD
BRANCH  35  38
ATOM     38  CA  ARG A   5      -5.012  -0.354   0.524  1.00  0.00     0.171 C 
BRANCH  38  39
ATOM     39  C   ARG A   5      -5.782   0.911   0.261  1.00  0.00     0.243 C 
ATOM     40  N   ASN A   6      -6.703   0.976  -0.840  1.00  0.00    -0.341 N 
ATOM     41  O   ARG A   5      -5.648   1.897   1.038  1.00  0.00    -0.273 OA
ATOM     42  H   UNL     1      -6.783   0.147  -1.468  1.00  0.00     0.164 HD
BRANCH  40  43
ATOM     43  CA  ASN A   6      -7.511   2.171  -1.108  1.00  0.00     0.201 C 
BRANCH  43  44
ATOM     44  C   ASN A   6      -8.576   2.307  -0.057  1.00  0.00     0.326 C 
ATOM     45  O   ASN A   6      -9.354   1.344   0.188  1.00  0.00    -0.250 OA
BRANCH  44  46
ATOM     46  OXT ASN A   6      -8.704   3.500   0.647  1.00  0.00    -0.480 OA
ATOM     47  H   UNL     1      -9.417   3.609   1.358  1.00  0.00     0.296 HD
ENDBRANCH  44  46
ENDBRANCH  43  44
BRANCH  43  48
ATOM     48  CB  ASN A   6      -8.132   2.096  -2.515  1.00  0.00     0.136 C 
BRANCH  48  49
ATOM     49  CG  ASN A   6      -8.802   3.385  -2.894  1.00  0.00     0.220 C 
ATOM     50  ND2 ASN A   6      -8.024   4.509  -3.308  1.00  0.00    -0.370 N 
ATOM     51  OD1 ASN A   6     -10.056   3.484  -2.830  1.00  0.00    -0.275 OA
ATOM     52  H   UNL     1      -6.980   4.446  -3.353  1.00  0.00     0.159 HD
ATOM     53  H   UNL     1      -8.491   5.401  -3.583  1.00  0.00     0.159 HD
ENDBRANCH  48  49
ENDBRANCH  43  48
ENDBRANCH  40  43
ENDBRANCH  38  39
BRANCH  38  54
ATOM     54  CB  ARG A   5      -5.773  -1.223   1.543  1.00  0.00     0.037 C 
BRANCH  54  55
ATOM     55  CG  ARG A   5      -5.092  -2.571   1.843  1.00  0.00     0.024 C 
BRANCH  55  56
ATOM     56  CD  ARG A   5      -5.054  -3.525   0.634  1.00  0.00     0.116 C 
BRANCH  56  57
ATOM     57  NE  ARG A   5      -3.866  -3.306  -0.198  1.00  0.00    -0.357 N 
ATOM     58  CZ  ARG A   5      -3.649  -3.970  -1.455  1.00  0.00     0.185 C 
ATOM     59  NH2 ARG A   5      -2.517  -3.610  -2.251  1.00  0.00    -0.370 N 
ATOM     60  H   UNL     1      -3.137  -2.627   0.117  1.00  0.00     0.163 HD
ATOM     61  H   UNL     1      -2.333  -4.094  -3.157  1.00  0.00     0.159 HD
ATOM     62  H   UNL     1      -1.879  -2.841  -1.947  1.00  0.00     0.159 HD
BRANCH  58  63
ATOM     63  NH1 ARG A   5      -4.457  -4.890  -1.886  1.00  0.00    -0.270 NA
ATOM     64  H   UNL     1      -5.297  -5.211  -1.358  1.00  0.00     0.191 HD
ENDBRANCH  58  63
ENDBRANCH  56  57
ENDBRANCH  55  56
ENDBRANCH  54  55
ENDBRANCH  38  54
ENDBRANCH  35  38
ENDBRANCH  32  34
ENDBRANCH   3  32
TORSDOF 26
