REMARK SMILES CC[C@H](C)[C@H](NC(=O)[C@@H](N)CO)C(=O)N[C@@H](CCCNC(=N)N)C(=O)N[C@@H](CC(C)C)C(=O)N[C@@H](CCCNC(=N)N)C(=O)N[C@@H](CC(N)=O)C(=O)O
REMARK SMILES IDX 24 1 25 2 26 3 16 5 15 6 13 7 14 8 5 10 6 11 7 12 8 13 9 15
REMARK SMILES IDX 10 16 11 19 12 20 3 22 4 23 2 24 1 25 17 26 18 27 19 28
REMARK SMILES IDX 20 29 21 30 23 31 22 35 27 37 32 38 34 39 33 40 35 42 43 43
REMARK SMILES IDX 45 44 44 45 46 47 51 48 52 49 53 50 47 52 48 53 49 54 50 55
REMARK SMILES IDX 36 58 37 59 38 60 39 61 40 62 42 63 41 67 28 69 29 70 30 71
REMARK SMILES IDX 31 72
REMARK H PARENT 26 4 15 9 6 14 10 17 10 18 12 21 20 32 23 33 23 34 22 36 34 41
REMARK H PARENT 45 46 53 51 49 56 49 57 39 64 42 65 42 66 41 68
ROOT
ATOM      1  C   ARG A   3      20.031  10.082  -6.468  1.00  0.00     0.243 C 
ATOM      2  O   ARG A   3      20.147   9.161  -5.614  1.00  0.00    -0.273 OA
ATOM      3  N   LEU A   4      20.563   9.923  -7.774  1.00  0.00    -0.343 N 
ATOM      4  H   UNL     1      20.403  10.667  -8.492  1.00  0.00     0.164 HD
ENDROOT
BRANCH   1   5
ATOM      5  CA  ARG A   3      19.326  11.355  -6.133  1.00  0.00     0.171 C 
BRANCH   5   6
ATOM      6  N   ARG A   3      18.080  11.047  -5.479  1.00  0.00    -0.343 N 
ATOM      7  C   ILE A   2      16.876  11.754  -5.735  1.00  0.00     0.243 C 
ATOM      8  O   ILE A   2      16.888  12.792  -6.454  1.00  0.00    -0.273 OA
ATOM      9  H   UNL     1      18.157  10.491  -4.602  1.00  0.00     0.164 HD
BRANCH   7  10
ATOM     10  CA  ILE A   2      15.620  11.277  -5.055  1.00  0.00     0.174 C 
BRANCH  10  11
ATOM     11  N   ILE A   2      14.437  11.732  -5.771  1.00  0.00    -0.343 N 
ATOM     12  C   SER A   1      13.914  13.048  -5.639  1.00  0.00     0.239 C 
ATOM     13  O   SER A   1      14.448  13.863  -4.837  1.00  0.00    -0.273 OA
ATOM     14  H   UNL     1      13.837  11.014  -6.225  1.00  0.00     0.164 HD
BRANCH  12  15
ATOM     15  CA  SER A   1      12.662  13.414  -6.391  1.00  0.00     0.167 C 
BRANCH  15  16
ATOM     16  N   SER A   1      12.474  14.866  -6.373  1.00  0.00    -0.318 NA
ATOM     17  H   UNL     1      13.208  15.323  -6.963  1.00  0.00     0.119 HD
ATOM     18  H   UNL     1      11.544  15.094  -6.795  1.00  0.00     0.119 HD
ENDBRANCH  15  16
BRANCH  15  19
ATOM     19  CB  SER A   1      12.688  12.888  -7.850  1.00  0.00     0.184 C 
BRANCH  19  20
ATOM     20  OG  SER A   1      11.434  13.049  -8.452  1.00  0.00    -0.394 OA
ATOM     21  H   UNL     1      10.837  12.360  -8.057  1.00  0.00     0.210 HD
ENDBRANCH  19  20
ENDBRANCH  15  19
ENDBRANCH  12  15
ENDBRANCH  10  11
BRANCH  10  22
ATOM     22  CB  ILE A   2      15.592   9.721  -4.914  1.00  0.00     0.018 C 
ATOM     23  CG1 ILE A   2      14.399   9.267  -4.071  1.00  0.00     0.010 C 
BRANCH  22  24
ATOM     24  CG2 ILE A   2      15.633   8.978  -6.280  1.00  0.00     0.002 C 
ATOM     25  CD1 ILE A   2      16.228   7.575  -6.162  1.00  0.00     0.004 C 
ENDBRANCH  22  24
ENDBRANCH  10  22
ENDBRANCH   7  10
ENDBRANCH   5   6
BRANCH   5  26
ATOM     26  CB  ARG A   3      20.184  12.253  -5.238  1.00  0.00     0.037 C 
BRANCH  26  27
ATOM     27  CG  ARG A   3      20.426  11.709  -3.810  1.00  0.00     0.024 C 
BRANCH  27  28
ATOM     28  CD  ARG A   3      21.822  12.066  -3.301  1.00  0.00     0.116 C 
BRANCH  28  29
ATOM     29  NE  ARG A   3      21.969  13.514  -3.126  1.00  0.00    -0.357 N 
ATOM     30  CZ  ARG A   3      22.666  14.106  -2.019  1.00  0.00     0.185 C 
ATOM     31  NH2 ARG A   3      22.924  15.512  -2.018  1.00  0.00    -0.370 N 
ATOM     32  H   UNL     1      21.716  14.137  -3.925  1.00  0.00     0.163 HD
ATOM     33  H   UNL     1      23.430  15.965  -1.224  1.00  0.00     0.159 HD
ATOM     34  H   UNL     1      22.609  16.108  -2.815  1.00  0.00     0.159 HD
BRANCH  30  35
ATOM     35  NH1 ARG A   3      23.057  13.377  -1.021  1.00  0.00    -0.270 NA
ATOM     36  H   UNL     1      23.565  13.786  -0.206  1.00  0.00     0.191 HD
ENDBRANCH  30  35
ENDBRANCH  28  29
ENDBRANCH  27  28
ENDBRANCH  26  27
ENDBRANCH   5  26
ENDBRANCH   1   5
BRANCH   3  37
ATOM     37  CA  LEU A   4      21.347   8.761  -8.141  1.00  0.00     0.171 C 
BRANCH  37  38
ATOM     38  C   LEU A   4      22.713   9.217  -8.521  1.00  0.00     0.243 C 
ATOM     39  N   ARG A   5      23.822   8.721  -7.786  1.00  0.00    -0.343 N 
ATOM     40  O   LEU A   4      22.877  10.033  -9.469  1.00  0.00    -0.273 OA
ATOM     41  H   UNL     1      23.666   8.031  -7.015  1.00  0.00     0.164 HD
BRANCH  39  42
ATOM     42  CA  ARG A   5      25.185   9.122  -8.073  1.00  0.00     0.171 C 
BRANCH  42  43
ATOM     43  C   ARG A   5      25.900   7.968  -8.685  1.00  0.00     0.243 C 
ATOM     44  N   ASN A   6      25.913   7.864 -10.102  1.00  0.00    -0.341 N 
ATOM     45  O   ARG A   5      26.447   7.087  -7.969  1.00  0.00    -0.273 OA
ATOM     46  H   UNL     1      25.489   8.647 -10.651  1.00  0.00     0.164 HD
BRANCH  44  47
ATOM     47  CA  ASN A   6      26.542   6.751 -10.804  1.00  0.00     0.201 C 
BRANCH  47  48
ATOM     48  C   ASN A   6      27.993   6.642 -10.416  1.00  0.00     0.326 C 
ATOM     49  O   ASN A   6      28.794   7.579 -10.677  1.00  0.00    -0.250 OA
BRANCH  48  50
ATOM     50  OXT ASN A   6      28.451   5.499  -9.768  1.00  0.00    -0.480 OA
ATOM     51  H   UNL     1      29.424   5.409  -9.499  1.00  0.00     0.296 HD
ENDBRANCH  48  50
ENDBRANCH  47  48
BRANCH  47  52
ATOM     52  CB  ASN A   6      26.424   6.947 -12.323  1.00  0.00     0.136 C 
BRANCH  52  53
ATOM     53  CG  ASN A   6      25.010   7.180 -12.773  1.00  0.00     0.220 C 
ATOM     54  ND2 ASN A   6      24.753   8.090 -13.833  1.00  0.00    -0.370 N 
ATOM     55  OD1 ASN A   6      24.053   6.558 -12.243  1.00  0.00    -0.275 OA
ATOM     56  H   UNL     1      23.775   8.258 -14.156  1.00  0.00     0.159 HD
ATOM     57  H   UNL     1      25.533   8.600 -14.306  1.00  0.00     0.159 HD
ENDBRANCH  52  53
ENDBRANCH  47  52
ENDBRANCH  44  47
ENDBRANCH  42  43
BRANCH  42  58
ATOM     58  CB  ARG A   5      25.862   9.606  -6.795  1.00  0.00     0.037 C 
BRANCH  58  59
ATOM     59  CG  ARG A   5      25.165  10.861  -6.271  1.00  0.00     0.024 C 
BRANCH  59  60
ATOM     60  CD  ARG A   5      25.838  11.393  -5.014  1.00  0.00     0.116 C 
BRANCH  60  61
ATOM     61  NE  ARG A   5      25.377  10.685  -3.823  1.00  0.00    -0.357 N 
ATOM     62  CZ  ARG A   5      25.468  11.279  -2.527  1.00  0.00     0.185 C 
ATOM     63  NH2 ARG A   5      26.105  12.542  -2.350  1.00  0.00    -0.370 N 
ATOM     64  H   UNL     1      24.897   9.761  -3.922  1.00  0.00     0.163 HD
ATOM     65  H   UNL     1      26.082  13.007  -1.415  1.00  0.00     0.159 HD
ATOM     66  H   UNL     1      26.687  12.987  -3.092  1.00  0.00     0.159 HD
BRANCH  62  67
ATOM     67  NH1 ARG A   5      24.958  10.679  -1.500  1.00  0.00    -0.270 NA
ATOM     68  H   UNL     1      24.475   9.756  -1.584  1.00  0.00     0.191 HD
ENDBRANCH  62  67
ENDBRANCH  60  61
ENDBRANCH  59  60
ENDBRANCH  58  59
ENDBRANCH  42  58
ENDBRANCH  39  42
ENDBRANCH  37  38
BRANCH  37  69
ATOM     69  CB  LEU A   4      20.654   8.000  -9.272  1.00  0.00     0.038 C 
BRANCH  69  70
ATOM     70  CG  LEU A   4      21.448   6.771  -9.768  1.00  0.00    -0.015 C 
ATOM     71  CD1 LEU A   4      21.761   5.779  -8.639  1.00  0.00     0.007 C 
ATOM     72  CD2 LEU A   4      20.661   6.067 -10.877  1.00  0.00     0.007 C 
ENDBRANCH  69  70
ENDBRANCH  37  69
ENDBRANCH   3  37
TORSDOF 31
