REMARK SMILES N=C(N)NCCC[C@H](NC(=O)[C@@H]1CCCN1C(=O)[C@H](CCC(N)=O)NC(=O)[C@H](Cc1ccccc1)NC(=O)[C@@H](N)CO)C(=O)N[C@@H](CC(N)=O)C(=O)O
REMARK SMILES IDX 16 1 12 2 13 3 14 4 15 5 17 6 18 7 19 8 25 9 26 10 27 11
REMARK SMILES IDX 28 13 36 14 37 15 38 16 39 18 40 19 41 22 42 23 29 25 30 26
REMARK SMILES IDX 31 27 35 28 32 29 34 30 33 31 20 32 21 33 22 34 23 35 24 36
REMARK SMILES IDX 10 39 9 40 11 41 8 43 43 44 45 45 44 46 46 48 51 49 52 50
REMARK SMILES IDX 53 51 47 53 48 54 49 55 50 56 7 59 6 60 5 61 4 62 2 63 3 64
REMARK SMILES IDX 1 68
REMARK H PARENT 25 12 36 17 40 20 40 21 42 24 23 37 23 38 9 42 45 47 53 52
REMARK H PARENT 49 57 49 58 4 65 3 66 3 67 1 69
ROOT
ATOM      1  N   PRO A   4      20.654   9.881  -7.791  1.00  0.00    -0.329 N 
ATOM      2  CA  PRO A   4      21.521   8.752  -8.105  1.00  0.00     0.174 C 
ATOM      3  CB  PRO A   4      21.640   8.750  -9.629  1.00  0.00     0.037 C 
ATOM      4  CG  PRO A   4      21.293  10.169 -10.066  1.00  0.00     0.024 C 
ATOM      5  CD  PRO A   4      20.449  10.754  -8.940  1.00  0.00     0.120 C 
ENDROOT
BRANCH   1   6
ATOM      6  C   GLN A   3      20.063  10.065  -6.500  1.00  0.00     0.245 C 
ATOM      7  O   GLN A   3      20.164   9.148  -5.639  1.00  0.00    -0.272 OA
BRANCH   6   8
ATOM      8  CA  GLN A   3      19.347  11.345  -6.155  1.00  0.00     0.172 C 
BRANCH   8   9
ATOM      9  N   GLN A   3      18.094  11.033  -5.512  1.00  0.00    -0.342 N 
ATOM     10  C   PHE A   2      16.892  11.745  -5.773  1.00  0.00     0.243 C 
ATOM     11  O   PHE A   2      16.909  12.790  -6.480  1.00  0.00    -0.273 OA
ATOM     12  H   UNL     1      18.173  10.482  -4.633  1.00  0.00     0.164 HD
BRANCH  10  13
ATOM     13  CA  PHE A   2      15.655  11.313  -5.057  1.00  0.00     0.175 C 
BRANCH  13  14
ATOM     14  N   PHE A   2      14.458  11.740  -5.768  1.00  0.00    -0.343 N 
ATOM     15  C   SER A   1      13.916  13.049  -5.638  1.00  0.00     0.239 C 
ATOM     16  O   SER A   1      14.443  13.870  -4.836  1.00  0.00    -0.273 OA
ATOM     17  H   UNL     1      13.873  10.999  -6.213  1.00  0.00     0.164 HD
BRANCH  15  18
ATOM     18  CA  SER A   1      12.663  13.408  -6.393  1.00  0.00     0.167 C 
BRANCH  18  19
ATOM     19  N   SER A   1      12.472  14.860  -6.379  1.00  0.00    -0.318 NA
ATOM     20  H   UNL     1      13.201  15.316  -6.976  1.00  0.00     0.119 HD
ATOM     21  H   UNL     1      11.538  15.085  -6.794  1.00  0.00     0.119 HD
ENDBRANCH  18  19
BRANCH  18  22
ATOM     22  CB  SER A   1      12.692  12.878  -7.846  1.00  0.00     0.184 C 
BRANCH  22  23
ATOM     23  OG  SER A   1      11.438  13.052  -8.443  1.00  0.00    -0.394 OA
ATOM     24  H   UNL     1      11.539  12.777  -9.392  1.00  0.00     0.210 HD
ENDBRANCH  22  23
ENDBRANCH  18  22
ENDBRANCH  15  18
ENDBRANCH  13  14
BRANCH  13  25
ATOM     25  CB  PHE A   2      15.614   9.773  -4.887  1.00  0.00     0.070 C 
BRANCH  25  26
ATOM     26  CG  PHE A   2      14.443   9.290  -4.090  1.00  0.00    -0.045 A 
ATOM     27  CD1 PHE A   2      13.902  10.047  -3.033  1.00  0.00     0.004 A 
ATOM     28  CD2 PHE A   2      13.968   7.990  -4.310  1.00  0.00     0.004 A 
ATOM     29  CE1 PHE A   2      12.868   9.536  -2.260  1.00  0.00     0.000 A 
ATOM     30  CE2 PHE A   2      12.938   7.478  -3.521  1.00  0.00     0.000 A 
ATOM     31  CZ  PHE A   2      12.386   8.253  -2.502  1.00  0.00     0.000 A 
ENDBRANCH  25  26
ENDBRANCH  13  25
ENDBRANCH  10  13
ENDBRANCH   8   9
BRANCH   8  32
ATOM     32  CB  GLN A   3      20.196  12.240  -5.241  1.00  0.00     0.045 C 
BRANCH  32  33
ATOM     33  CG  GLN A   3      20.429  11.686  -3.816  1.00  0.00     0.102 C 
BRANCH  33  34
ATOM     34  CD  GLN A   3      21.786  12.083  -3.321  1.00  0.00     0.217 C 
ATOM     35  NE2 GLN A   3      21.991  13.365  -2.728  1.00  0.00    -0.370 N 
ATOM     36  OE1 GLN A   3      22.761  11.298  -3.469  1.00  0.00    -0.275 OA
ATOM     37  H   UNL     1      21.198  14.036  -2.625  1.00  0.00     0.159 HD
ATOM     38  H   UNL     1      22.940  13.646  -2.395  1.00  0.00     0.159 HD
ENDBRANCH  33  34
ENDBRANCH  32  33
ENDBRANCH   8  32
ENDBRANCH   6   8
ENDBRANCH   1   6
BRANCH   2  39
ATOM     39  C   PRO A   4      22.876   8.932  -7.469  1.00  0.00     0.243 C 
ATOM     40  N   ARG A   5      23.706   7.790  -7.221  1.00  0.00    -0.343 N 
ATOM     41  O   PRO A   4      23.307  10.093  -7.226  1.00  0.00    -0.273 OA
ATOM     42  H   UNL     1      23.308   6.839  -7.399  1.00  0.00     0.164 HD
BRANCH  40  43
ATOM     43  CA  ARG A   5      25.147   7.924  -6.993  1.00  0.00     0.171 C 
BRANCH  43  44
ATOM     44  C   ARG A   5      25.826   8.189  -8.313  1.00  0.00     0.243 C 
ATOM     45  N   ASN A   6      26.330   9.499  -8.613  1.00  0.00    -0.341 N 
ATOM     46  O   ARG A   5      25.901   7.268  -9.173  1.00  0.00    -0.273 OA
ATOM     47  H   UNL     1      26.212  10.248  -7.895  1.00  0.00     0.164 HD
BRANCH  45  48
ATOM     48  CA  ASN A   6      26.909   9.829  -9.922  1.00  0.00     0.201 C 
BRANCH  48  49
ATOM     49  C   ASN A   6      28.227   9.130 -10.116  1.00  0.00     0.326 C 
ATOM     50  O   ASN A   6      28.996   8.928  -9.137  1.00  0.00    -0.250 OA
BRANCH  49  51
ATOM     51  OXT ASN A   6      28.619   8.744 -11.395  1.00  0.00    -0.480 OA
ATOM     52  H   UNL     1      29.510   8.288 -11.550  1.00  0.00     0.296 HD
ENDBRANCH  49  51
ENDBRANCH  48  49
BRANCH  48  53
ATOM     53  CB  ASN A   6      27.045  11.354 -10.113  1.00  0.00     0.136 C 
BRANCH  53  54
ATOM     54  CG  ASN A   6      28.028  11.990  -9.167  1.00  0.00     0.220 C 
ATOM     55  ND2 ASN A   6      29.407  12.096  -9.521  1.00  0.00    -0.370 N 
ATOM     56  OD1 ASN A   6      27.636  12.424  -8.052  1.00  0.00    -0.275 OA
ATOM     57  H   UNL     1      29.751  11.743 -10.441  1.00  0.00     0.159 HD
ATOM     58  H   UNL     1      30.089  12.530  -8.860  1.00  0.00     0.159 HD
ENDBRANCH  53  54
ENDBRANCH  48  53
ENDBRANCH  45  48
ENDBRANCH  43  44
BRANCH  43  59
ATOM     59  CB  ARG A   5      25.698   6.658  -6.307  1.00  0.00     0.037 C 
BRANCH  59  60
ATOM     60  CG  ARG A   5      27.183   6.802  -5.935  1.00  0.00     0.024 C 
BRANCH  60  61
ATOM     61  CD  ARG A   5      27.703   5.573  -5.178  1.00  0.00     0.116 C 
BRANCH  61  62
ATOM     62  NE  ARG A   5      27.071   5.455  -3.863  1.00  0.00    -0.357 N 
ATOM     63  CZ  ARG A   5      27.415   6.295  -2.750  1.00  0.00     0.185 C 
ATOM     64  NH2 ARG A   5      26.709   6.155  -1.516  1.00  0.00    -0.370 N 
ATOM     65  H   UNL     1      26.369   4.696  -3.719  1.00  0.00     0.163 HD
ATOM     66  H   UNL     1      25.941   5.454  -1.423  1.00  0.00     0.159 HD
ATOM     67  H   UNL     1      26.945   6.751  -0.691  1.00  0.00     0.159 HD
BRANCH  63  68
ATOM     68  NH1 ARG A   5      28.365   7.169  -2.859  1.00  0.00    -0.270 NA
ATOM     69  H   UNL     1      28.636   7.789  -2.063  1.00  0.00     0.191 HD
ENDBRANCH  63  68
ENDBRANCH  61  62
ENDBRANCH  60  61
ENDBRANCH  59  60
ENDBRANCH  43  59
ENDBRANCH  40  43
ENDBRANCH   2  39
TORSDOF 27
