REMARK SMILES CC(C)C[C@H](NC(=O)[C@H](CCCCN)NC(=O)[C@H](Cc1ccccc1)NC(=O)[C@@H](N)Cc1c[nH]cn1)C(=O)N[C@@H](CCCNC(=N)N)C(=O)N[C@@H](CC(N)=O)C(=O)O
REMARK SMILES IDX 7 1 8 2 6 3 9 5 15 6 16 7 17 8 18 10 26 11 27 12 28 13 29 15
REMARK SMILES IDX 30 16 31 19 32 20 36 21 33 22 35 23 34 24 19 26 20 27 21 28
REMARK SMILES IDX 25 29 22 30 24 31 23 32 10 33 11 34 12 35 13 36 14 37 5 40
REMARK SMILES IDX 37 41 39 42 38 43 40 45 48 46 50 47 49 48 51 50 56 51 57 52
REMARK SMILES IDX 58 53 52 55 53 56 54 57 55 58 41 61 42 62 43 63 44 64 45 65
REMARK SMILES IDX 47 66 46 70 4 72 2 73 1 74 3 75
REMARK H PARENT 6 4 15 9 26 14 30 17 30 18 34 25 14 38 14 39 39 44 50 49 58 54
REMARK H PARENT 54 59 54 60 44 67 47 68 47 69 46 71
ROOT
ATOM      1  C   LYS A   3      -1.259  -0.335  -0.153  1.00  0.00     0.243 C 
ATOM      2  O   LYS A   3      -1.604  -1.075  -1.116  1.00  0.00    -0.273 OA
ATOM      3  N   LEU A   4       0.013   0.326  -0.169  1.00  0.00    -0.343 N 
ATOM      4  H   UNL     1       0.257   0.948   0.634  1.00  0.00     0.164 HD
ENDROOT
BRANCH   1   5
ATOM      5  CA  LYS A   3      -2.159  -0.183   1.045  1.00  0.00     0.171 C 
BRANCH   5   6
ATOM      6  N   LYS A   3      -3.499  -0.725   0.783  1.00  0.00    -0.343 N 
ATOM      7  C   PHE A   2      -4.413  -0.089  -0.125  1.00  0.00     0.243 C 
ATOM      8  O   PHE A   2      -4.082   0.977  -0.716  1.00  0.00    -0.273 OA
ATOM      9  H   UNL     1      -3.813  -1.591   1.273  1.00  0.00     0.164 HD
BRANCH   7  10
ATOM     10  CA  PHE A   2      -5.737  -0.732  -0.433  1.00  0.00     0.175 C 
BRANCH  10  11
ATOM     11  N   PHE A   2      -6.749   0.297  -0.700  1.00  0.00    -0.343 N 
ATOM     12  C   HIS A   1      -7.878   0.537   0.153  1.00  0.00     0.237 C 
ATOM     13  O   HIS A   1      -8.019  -0.114   1.225  1.00  0.00    -0.273 OA
ATOM     14  H   UNL     1      -6.633   0.897  -1.549  1.00  0.00     0.164 HD
BRANCH  12  15
ATOM     15  CA  HIS A   1      -8.866   1.624  -0.216  1.00  0.00     0.147 C 
BRANCH  15  16
ATOM     16  N   HIS A   1     -10.160   1.446   0.448  1.00  0.00    -0.320 NA
ATOM     17  H   UNL     1     -10.040   1.472   1.483  1.00  0.00     0.119 HD
ATOM     18  H   UNL     1     -10.533   0.503   0.206  1.00  0.00     0.119 HD
ENDBRANCH  15  16
BRANCH  15  19
ATOM     19  CB  HIS A   1      -8.298   3.033   0.053  1.00  0.00     0.086 C 
BRANCH  19  20
ATOM     20  CG  HIS A   1      -7.862   3.221   1.480  1.00  0.00     0.060 A 
ATOM     21  ND1 HIS A   1      -8.668   3.664   2.466  1.00  0.00    -0.242 NA
ATOM     22  CD2 HIS A   1      -6.619   2.914   1.987  1.00  0.00     0.107 A 
ATOM     23  CE1 HIS A   1      -7.883   3.618   3.562  1.00  0.00     0.196 A 
ATOM     24  NE2 HIS A   1      -6.641   3.165   3.302  1.00  0.00    -0.351 N 
ATOM     25  H   UNL     1      -5.864   3.032   3.984  1.00  0.00     0.167 HD
ENDBRANCH  19  20
ENDBRANCH  15  19
ENDBRANCH  12  15
ENDBRANCH  10  11
BRANCH  10  26
ATOM     26  CB  PHE A   2      -5.589  -1.659  -1.650  1.00  0.00     0.070 C 
BRANCH  26  27
ATOM     27  CG  PHE A   2      -6.858  -2.432  -1.906  1.00  0.00    -0.045 A 
ATOM     28  CD1 PHE A   2      -7.879  -1.878  -2.697  1.00  0.00     0.004 A 
ATOM     29  CD2 PHE A   2      -7.055  -3.684  -1.303  1.00  0.00     0.004 A 
ATOM     30  CE1 PHE A   2      -9.075  -2.575  -2.890  1.00  0.00     0.000 A 
ATOM     31  CE2 PHE A   2      -8.250  -4.379  -1.507  1.00  0.00     0.000 A 
ATOM     32  CZ  PHE A   2      -9.258  -3.828  -2.301  1.00  0.00     0.000 A 
ENDBRANCH  26  27
ENDBRANCH  10  26
ENDBRANCH   7  10
ENDBRANCH   5   6
BRANCH   5  33
ATOM     33  CB  LYS A   3      -1.537  -0.800   2.322  1.00  0.00     0.035 C 
BRANCH  33  34
ATOM     34  CG  LYS A   3      -1.164  -2.299   2.239  1.00  0.00     0.004 C 
BRANCH  34  35
ATOM     35  CD  LYS A   3       0.226  -2.545   1.621  1.00  0.00     0.015 C 
BRANCH  35  36
ATOM     36  CE  LYS A   3       0.730  -3.970   1.873  1.00  0.00     0.077 C 
BRANCH  36  37
ATOM     37  NZ  LYS A   3       1.249  -4.103   3.232  1.00  0.00    -0.330 NA
ATOM     38  H   UNL     1       1.816  -4.982   3.271  1.00  0.00     0.118 HD
ATOM     39  H   UNL     1       0.443  -4.250   3.882  1.00  0.00     0.118 HD
ENDBRANCH  36  37
ENDBRANCH  35  36
ENDBRANCH  34  35
ENDBRANCH  33  34
ENDBRANCH   5  33
ENDBRANCH   1   5
BRANCH   3  40
ATOM     40  CA  LEU A   4       0.930   0.263  -1.313  1.00  0.00     0.171 C 
BRANCH  40  41
ATOM     41  C   LEU A   4       2.360   0.078  -0.859  1.00  0.00     0.243 C 
ATOM     42  N   ARG A   5       3.403  -0.109  -1.830  1.00  0.00    -0.343 N 
ATOM     43  O   LEU A   4       2.635   0.053   0.372  1.00  0.00    -0.273 OA
ATOM     44  H   UNL     1       3.152  -0.108  -2.847  1.00  0.00     0.164 HD
BRANCH  42  45
ATOM     45  CA  ARG A   5       4.792  -0.373  -1.438  1.00  0.00     0.171 C 
BRANCH  45  46
ATOM     46  C   ARG A   5       5.361   0.834  -0.732  1.00  0.00     0.243 C 
ATOM     47  N   ASN A   6       6.002   0.685   0.544  1.00  0.00    -0.341 N 
ATOM     48  O   ARG A   5       5.289   1.970  -1.279  1.00  0.00    -0.273 OA
ATOM     49  H   UNL     1       6.043  -0.269   0.969  1.00  0.00     0.164 HD
BRANCH  47  50
ATOM     50  CA  ASN A   6       6.558   1.828   1.278  1.00  0.00     0.201 C 
BRANCH  50  51
ATOM     51  C   ASN A   6       7.778   2.346   0.568  1.00  0.00     0.326 C 
ATOM     52  O   ASN A   6       8.702   1.559   0.230  1.00  0.00    -0.250 OA
BRANCH  51  53
ATOM     53  OXT ASN A   6       7.905   3.713   0.326  1.00  0.00    -0.480 OA
ATOM     54  H   UNL     1       8.722   4.081  -0.146  1.00  0.00     0.296 HD
ENDBRANCH  51  53
ENDBRANCH  50  51
BRANCH  50  55
ATOM     55  CB  ASN A   6       6.897   1.415   2.721  1.00  0.00     0.136 C 
BRANCH  55  56
ATOM     56  CG  ASN A   6       7.369   2.584   3.538  1.00  0.00     0.220 C 
ATOM     57  ND2 ASN A   6       8.769   2.796   3.752  1.00  0.00    -0.370 N 
ATOM     58  OD1 ASN A   6       6.529   3.393   4.019  1.00  0.00    -0.275 OA
ATOM     59  H   UNL     1       9.098   3.626   4.295  1.00  0.00     0.159 HD
ATOM     60  H   UNL     1       9.477   2.138   3.350  1.00  0.00     0.159 HD
ENDBRANCH  55  56
ENDBRANCH  50  55
ENDBRANCH  47  50
ENDBRANCH  45  46
BRANCH  45  61
ATOM     61  CB  ARG A   5       5.639  -0.731  -2.679  1.00  0.00     0.037 C 
BRANCH  61  62
ATOM     62  CG  ARG A   5       7.092  -1.134  -2.356  1.00  0.00     0.024 C 
BRANCH  62  63
ATOM     63  CD  ARG A   5       7.200  -2.517  -1.697  1.00  0.00     0.116 C 
BRANCH  63  64
ATOM     64  NE  ARG A   5       8.603  -2.916  -1.577  1.00  0.00    -0.357 N 
ATOM     65  CZ  ARG A   5       9.547  -2.335  -0.657  1.00  0.00     0.185 C 
ATOM     66  NH2 ARG A   5      10.933  -2.646  -0.797  1.00  0.00    -0.370 N 
ATOM     67  H   UNL     1       8.943  -3.667  -2.221  1.00  0.00     0.163 HD
ATOM     68  H   UNL     1      11.261  -3.276  -1.564  1.00  0.00     0.159 HD
ATOM     69  H   UNL     1      11.631  -2.269  -0.124  1.00  0.00     0.159 HD
BRANCH  65  70
ATOM     70  NH1 ARG A   5       9.174  -1.548   0.302  1.00  0.00    -0.270 NA
ATOM     71  H   UNL     1       8.182  -1.291   0.479  1.00  0.00     0.191 HD
ENDBRANCH  65  70
ENDBRANCH  63  64
ENDBRANCH  62  63
ENDBRANCH  61  62
ENDBRANCH  45  61
ENDBRANCH  42  45
ENDBRANCH  40  41
BRANCH  40  72
ATOM     72  CB  LEU A   4       0.732   1.492  -2.236  1.00  0.00     0.038 C 
BRANCH  72  73
ATOM     73  CG  LEU A   4       0.723   2.877  -1.537  1.00  0.00    -0.015 C 
ATOM     74  CD1 LEU A   4       0.223   3.946  -2.515  1.00  0.00     0.007 C 
ATOM     75  CD2 LEU A   4       2.110   3.273  -1.012  1.00  0.00     0.007 C 
ENDBRANCH  72  73
ENDBRANCH  40  72
ENDBRANCH   3  40
TORSDOF 31
