REMARK SMILES CC[C@H](C)[C@H](NC(=O)[C@H](CCCNC(=N)N)NC(=O)[C@H](Cc1ccccc1)NC(=O)[C@@H](N)CO)C(=O)N[C@@H](CCCNC(=N)N)C(=O)N[C@@H](CC(N)=O)C(=O)O
REMARK SMILES IDX 7 1 8 2 6 3 9 5 17 6 18 7 19 8 20 10 28 11 29 12 30 13 31 15
REMARK SMILES IDX 32 16 33 19 34 20 21 22 22 23 23 24 27 25 24 26 26 27 25 28
REMARK SMILES IDX 10 29 11 30 12 31 13 32 14 33 16 34 15 38 5 40 35 41 37 42
REMARK SMILES IDX 36 43 38 45 46 46 48 47 47 48 49 50 54 51 55 52 56 53 50 55
REMARK SMILES IDX 51 56 52 57 53 58 39 61 40 62 41 63 42 64 43 65 45 66 44 70
REMARK SMILES IDX 3 72 4 73 2 74 1 75
REMARK H PARENT 6 4 17 9 28 14 32 17 32 18 34 21 13 35 16 36 16 37 15 39 37 44
REMARK H PARENT 48 49 56 54 52 59 52 60 42 67 45 68 45 69 44 71
ROOT
ATOM      1  C   ARG A   3      20.035  10.083  -6.472  1.00  0.00     0.243 C 
ATOM      2  O   ARG A   3      20.144   9.155  -5.623  1.00  0.00    -0.273 OA
ATOM      3  N   ILE A   4      20.576   9.938  -7.774  1.00  0.00    -0.342 N 
ATOM      4  H   UNL     1      20.498  10.736  -8.445  1.00  0.00     0.164 HD
ENDROOT
BRANCH   1   5
ATOM      5  CA  ARG A   3      19.335  11.357  -6.136  1.00  0.00     0.171 C 
BRANCH   5   6
ATOM      6  N   ARG A   3      18.086  11.049  -5.493  1.00  0.00    -0.343 N 
ATOM      7  C   PHE A   2      16.884  11.750  -5.770  1.00  0.00     0.243 C 
ATOM      8  O   PHE A   2      16.901  12.791  -6.483  1.00  0.00    -0.273 OA
ATOM      9  H   UNL     1      18.163  10.516  -4.601  1.00  0.00     0.164 HD
BRANCH   7  10
ATOM     10  CA  PHE A   2      15.649  11.314  -5.058  1.00  0.00     0.175 C 
BRANCH  10  11
ATOM     11  N   PHE A   2      14.453  11.741  -5.770  1.00  0.00    -0.343 N 
ATOM     12  C   SER A   1      13.913  13.050  -5.637  1.00  0.00     0.239 C 
ATOM     13  O   SER A   1      14.442  13.870  -4.836  1.00  0.00    -0.273 OA
ATOM     14  H   UNL     1      13.869  11.001  -6.216  1.00  0.00     0.164 HD
BRANCH  12  15
ATOM     15  CA  SER A   1      12.660  13.412  -6.391  1.00  0.00     0.167 C 
BRANCH  15  16
ATOM     16  N   SER A   1      12.474  14.864  -6.376  1.00  0.00    -0.318 NA
ATOM     17  H   UNL     1      13.175  15.315  -7.009  1.00  0.00     0.119 HD
ATOM     18  H   UNL     1      11.521  15.091  -6.740  1.00  0.00     0.119 HD
ENDBRANCH  15  16
BRANCH  15  19
ATOM     19  CB  SER A   1      12.687  12.879  -7.844  1.00  0.00     0.184 C 
BRANCH  19  20
ATOM     20  OG  SER A   1      11.436  13.047  -8.450  1.00  0.00    -0.394 OA
ATOM     21  H   UNL     1      11.445  13.936  -8.892  1.00  0.00     0.210 HD
ENDBRANCH  19  20
ENDBRANCH  15  19
ENDBRANCH  12  15
ENDBRANCH  10  11
BRANCH  10  22
ATOM     22  CB  PHE A   2      15.612   9.774  -4.891  1.00  0.00     0.070 C 
BRANCH  22  23
ATOM     23  CG  PHE A   2      14.443   9.289  -4.090  1.00  0.00    -0.045 A 
ATOM     24  CD1 PHE A   2      13.903  10.046  -3.032  1.00  0.00     0.004 A 
ATOM     25  CD2 PHE A   2      13.968   7.989  -4.310  1.00  0.00     0.004 A 
ATOM     26  CE1 PHE A   2      12.868   9.535  -2.260  1.00  0.00     0.000 A 
ATOM     27  CE2 PHE A   2      12.939   7.477  -3.521  1.00  0.00     0.000 A 
ATOM     28  CZ  PHE A   2      12.386   8.252  -2.502  1.00  0.00     0.000 A 
ENDBRANCH  22  23
ENDBRANCH  10  22
ENDBRANCH   7  10
ENDBRANCH   5   6
BRANCH   5  29
ATOM     29  CB  ARG A   3      20.189  12.251  -5.234  1.00  0.00     0.037 C 
BRANCH  29  30
ATOM     30  CG  ARG A   3      20.432  11.696  -3.812  1.00  0.00     0.024 C 
BRANCH  30  31
ATOM     31  CD  ARG A   3      21.817  12.081  -3.296  1.00  0.00     0.116 C 
BRANCH  31  32
ATOM     32  NE  ARG A   3      21.909  13.527  -3.086  1.00  0.00    -0.357 N 
ATOM     33  CZ  ARG A   3      22.633  14.414  -3.951  1.00  0.00     0.185 C 
ATOM     34  NH2 ARG A   3      22.634  15.818  -3.680  1.00  0.00    -0.370 N 
ATOM     35  H   UNL     1      21.361  13.939  -2.298  1.00  0.00     0.163 HD
ATOM     36  H   UNL     1      22.114  16.198  -2.858  1.00  0.00     0.159 HD
ATOM     37  H   UNL     1      23.153  16.483  -4.295  1.00  0.00     0.159 HD
BRANCH  33  38
ATOM     38  NH1 ARG A   3      23.281  13.953  -4.974  1.00  0.00    -0.270 NA
ATOM     39  H   UNL     1      23.814  14.580  -5.617  1.00  0.00     0.191 HD
ENDBRANCH  33  38
ENDBRANCH  31  32
ENDBRANCH  30  31
ENDBRANCH  29  30
ENDBRANCH   5  29
ENDBRANCH   1   5
BRANCH   3  40
ATOM     40  CA  ILE A   4      21.344   8.772  -8.165  1.00  0.00     0.174 C 
BRANCH  40  41
ATOM     41  C   ILE A   4      22.717   9.217  -8.534  1.00  0.00     0.243 C 
ATOM     42  N   ARG A   5      23.820   8.720  -7.789  1.00  0.00    -0.343 N 
ATOM     43  O   ILE A   4      22.893  10.046  -9.466  1.00  0.00    -0.273 OA
ATOM     44  H   UNL     1      23.660   8.030  -7.020  1.00  0.00     0.164 HD
BRANCH  42  45
ATOM     45  CA  ARG A   5      25.185   9.120  -8.072  1.00  0.00     0.171 C 
BRANCH  45  46
ATOM     46  C   ARG A   5      25.900   7.967  -8.685  1.00  0.00     0.243 C 
ATOM     47  N   ASN A   6      25.913   7.864 -10.102  1.00  0.00    -0.341 N 
ATOM     48  O   ARG A   5      26.448   7.086  -7.969  1.00  0.00    -0.273 OA
ATOM     49  H   UNL     1      25.488   8.647 -10.650  1.00  0.00     0.164 HD
BRANCH  47  50
ATOM     50  CA  ASN A   6      26.542   6.751 -10.804  1.00  0.00     0.201 C 
BRANCH  50  51
ATOM     51  C   ASN A   6      27.993   6.642 -10.416  1.00  0.00     0.326 C 
ATOM     52  O   ASN A   6      28.794   7.579 -10.677  1.00  0.00    -0.250 OA
BRANCH  51  53
ATOM     53  OXT ASN A   6      28.451   5.499  -9.768  1.00  0.00    -0.480 OA
ATOM     54  H   UNL     1      29.424   5.409  -9.500  1.00  0.00     0.296 HD
ENDBRANCH  51  53
ENDBRANCH  50  51
BRANCH  50  55
ATOM     55  CB  ASN A   6      26.424   6.947 -12.323  1.00  0.00     0.136 C 
BRANCH  55  56
ATOM     56  CG  ASN A   6      25.010   7.181 -12.773  1.00  0.00     0.220 C 
ATOM     57  ND2 ASN A   6      24.753   8.091 -13.833  1.00  0.00    -0.370 N 
ATOM     58  OD1 ASN A   6      24.053   6.558 -12.243  1.00  0.00    -0.275 OA
ATOM     59  H   UNL     1      25.533   8.600 -14.306  1.00  0.00     0.159 HD
ATOM     60  H   UNL     1      23.775   8.259 -14.156  1.00  0.00     0.159 HD
ENDBRANCH  55  56
ENDBRANCH  50  55
ENDBRANCH  47  50
ENDBRANCH  45  46
BRANCH  45  61
ATOM     61  CB  ARG A   5      25.860   9.602  -6.794  1.00  0.00     0.037 C 
BRANCH  61  62
ATOM     62  CG  ARG A   5      25.169  10.861  -6.271  1.00  0.00     0.024 C 
BRANCH  62  63
ATOM     63  CD  ARG A   5      25.848  11.386  -5.014  1.00  0.00     0.116 C 
BRANCH  63  64
ATOM     64  NE  ARG A   5      25.375  10.686  -3.823  1.00  0.00    -0.357 N 
ATOM     65  CZ  ARG A   5      25.466  11.280  -2.527  1.00  0.00     0.185 C 
ATOM     66  NH2 ARG A   5      26.103  12.543  -2.350  1.00  0.00    -0.370 N 
ATOM     67  H   UNL     1      24.893   9.763  -3.921  1.00  0.00     0.163 HD
ATOM     68  H   UNL     1      26.074  13.011  -1.417  1.00  0.00     0.159 HD
ATOM     69  H   UNL     1      26.692  12.984  -3.089  1.00  0.00     0.159 HD
BRANCH  65  70
ATOM     70  NH1 ARG A   5      24.955  10.681  -1.500  1.00  0.00    -0.270 NA
ATOM     71  H   UNL     1      24.473   9.758  -1.584  1.00  0.00     0.191 HD
ENDBRANCH  65  70
ENDBRANCH  63  64
ENDBRANCH  62  63
ENDBRANCH  61  62
ENDBRANCH  45  61
ENDBRANCH  42  45
ENDBRANCH  40  41
BRANCH  40  72
ATOM     72  CB  ILE A   4      20.628   7.976  -9.283  1.00  0.00     0.018 C 
ATOM     73  CG1 ILE A   4      20.217   8.830 -10.498  1.00  0.00     0.010 C 
BRANCH  72  74
ATOM     74  CG2 ILE A   4      21.454   6.763  -9.763  1.00  0.00     0.002 C 
ATOM     75  CD1 ILE A   4      21.771   5.774  -8.641  1.00  0.00     0.004 C 
ENDBRANCH  72  74
ENDBRANCH  40  72
ENDBRANCH   3  40
TORSDOF 31
