REMARK SMILES CC(C)C[C@H](NC(=O)[C@H](C)NC(=O)[C@@H](N)CO)C(=O)N[C@@H](CO)C(=O)N[C@@H](CCCNC(=N)N)C(=O)N[C@@H](CC(N)=O)C(=O)O
REMARK SMILES IDX 18 1 19 2 20 3 5 5 6 6 7 7 8 8 9 10 10 11 11 12 12 13 13 14
REMARK SMILES IDX 14 16 15 17 16 20 17 21 4 23 2 24 1 25 3 26 21 27 24 28
REMARK SMILES IDX 26 29 25 30 27 32 35 33 37 34 36 35 38 37 43 38 44 39 45 40
REMARK SMILES IDX 39 42 40 43 41 44 42 45 28 48 29 49 30 50 31 51 32 52 34 53
REMARK SMILES IDX 33 57 22 59 23 60
REMARK H PARENT 20 4 6 9 11 15 15 18 15 19 17 22 26 31 37 36 45 41 41 46 41 47
REMARK H PARENT 31 54 34 55 34 56 33 58 23 61
ROOT
ATOM      1  C   LEU A   3      20.045  10.075  -6.472  1.00  0.00     0.243 C 
ATOM      2  O   LEU A   3      20.166   9.149  -5.623  1.00  0.00    -0.273 OA
ATOM      3  N   SER A   4      20.565   9.919  -7.781  1.00  0.00    -0.340 N 
ATOM      4  H   UNL     1      20.425  10.681  -8.483  1.00  0.00     0.164 HD
ENDROOT
BRANCH   1   5
ATOM      5  CA  LEU A   3      19.320  11.337  -6.133  1.00  0.00     0.171 C 
BRANCH   5   6
ATOM      6  N   LEU A   3      18.058  10.996  -5.522  1.00  0.00    -0.343 N 
ATOM      7  C   ALA A   2      16.869  11.742  -5.738  1.00  0.00     0.242 C 
ATOM      8  O   ALA A   2      16.895  12.792  -6.440  1.00  0.00    -0.273 OA
ATOM      9  H   UNL     1      18.081  10.278  -4.767  1.00  0.00     0.164 HD
BRANCH   7  10
ATOM     10  CA  ALA A   2      15.614  11.295  -5.040  1.00  0.00     0.168 C 
ATOM     11  CB  ALA A   2      15.558   9.764  -4.898  1.00  0.00     0.041 C 
BRANCH  10  12
ATOM     12  N   ALA A   2      14.436  11.734  -5.769  1.00  0.00    -0.343 N 
ATOM     13  C   SER A   1      13.909  13.049  -5.639  1.00  0.00     0.239 C 
ATOM     14  O   SER A   1      14.449  13.866  -4.842  1.00  0.00    -0.273 OA
ATOM     15  H   UNL     1      13.846  11.002  -6.222  1.00  0.00     0.164 HD
BRANCH  13  16
ATOM     16  CA  SER A   1      12.652  13.413  -6.386  1.00  0.00     0.167 C 
BRANCH  16  17
ATOM     17  N   SER A   1      12.468  14.866  -6.382  1.00  0.00    -0.318 NA
ATOM     18  H   UNL     1      12.303  15.175  -5.396  1.00  0.00     0.119 HD
ATOM     19  H   UNL     1      11.583  15.093  -6.892  1.00  0.00     0.119 HD
ENDBRANCH  16  17
BRANCH  16  20
ATOM     20  CB  SER A   1      12.694  12.901  -7.847  1.00  0.00     0.184 C 
BRANCH  20  21
ATOM     21  OG  SER A   1      11.437  13.038  -8.451  1.00  0.00    -0.394 OA
ATOM     22  H   UNL     1      10.858  12.328  -8.070  1.00  0.00     0.210 HD
ENDBRANCH  20  21
ENDBRANCH  16  20
ENDBRANCH  13  16
ENDBRANCH  10  12
ENDBRANCH   7  10
ENDBRANCH   5   6
BRANCH   5  23
ATOM     23  CB  LEU A   3      20.148  12.243  -5.212  1.00  0.00     0.038 C 
BRANCH  23  24
ATOM     24  CG  LEU A   3      20.411  11.673  -3.790  1.00  0.00    -0.015 C 
ATOM     25  CD1 LEU A   3      21.813  12.069  -3.319  1.00  0.00     0.007 C 
ATOM     26  CD2 LEU A   3      19.361  12.156  -2.781  1.00  0.00     0.007 C 
ENDBRANCH  23  24
ENDBRANCH   5  23
ENDBRANCH   1   5
BRANCH   3  27
ATOM     27  CA  SER A   4      21.342   8.754  -8.162  1.00  0.00     0.197 C 
BRANCH  27  28
ATOM     28  C   SER A   4      22.712   9.201  -8.535  1.00  0.00     0.245 C 
ATOM     29  N   ARG A   5      23.817   8.707  -7.792  1.00  0.00    -0.342 N 
ATOM     30  O   SER A   4      22.883  10.032  -9.469  1.00  0.00    -0.273 OA
ATOM     31  H   UNL     1      23.661   7.984  -7.052  1.00  0.00     0.164 HD
BRANCH  29  32
ATOM     32  CA  ARG A   5      25.182   9.117  -8.072  1.00  0.00     0.171 C 
BRANCH  32  33
ATOM     33  C   ARG A   5      25.902   7.967  -8.685  1.00  0.00     0.243 C 
ATOM     34  N   ASN A   6      25.916   7.865 -10.102  1.00  0.00    -0.341 N 
ATOM     35  O   ARG A   5      26.450   7.086  -7.970  1.00  0.00    -0.273 OA
ATOM     36  H   UNL     1      25.495   8.651 -10.651  1.00  0.00     0.164 HD
BRANCH  34  37
ATOM     37  CA  ASN A   6      26.543   6.751 -10.804  1.00  0.00     0.201 C 
BRANCH  37  38
ATOM     38  C   ASN A   6      27.994   6.642 -10.417  1.00  0.00     0.326 C 
ATOM     39  O   ASN A   6      28.795   7.579 -10.677  1.00  0.00    -0.250 OA
BRANCH  38  40
ATOM     40  OXT ASN A   6      28.453   5.497  -9.772  1.00  0.00    -0.480 OA
ATOM     41  H   UNL     1      29.426   5.407  -9.505  1.00  0.00     0.296 HD
ENDBRANCH  38  40
ENDBRANCH  37  38
BRANCH  37  42
ATOM     42  CB  ASN A   6      26.424   6.946 -12.323  1.00  0.00     0.136 C 
BRANCH  42  43
ATOM     43  CG  ASN A   6      25.009   7.181 -12.772  1.00  0.00     0.220 C 
ATOM     44  ND2 ASN A   6      24.753   8.089 -13.834  1.00  0.00    -0.370 N 
ATOM     45  OD1 ASN A   6      24.051   6.563 -12.237  1.00  0.00    -0.275 OA
ATOM     46  H   UNL     1      25.533   8.595 -14.309  1.00  0.00     0.159 HD
ATOM     47  H   UNL     1      23.775   8.258 -14.156  1.00  0.00     0.159 HD
ENDBRANCH  42  43
ENDBRANCH  37  42
ENDBRANCH  34  37
ENDBRANCH  32  33
BRANCH  32  48
ATOM     48  CB  ARG A   5      25.855   9.599  -6.792  1.00  0.00     0.037 C 
BRANCH  48  49
ATOM     49  CG  ARG A   5      25.162  10.857  -6.270  1.00  0.00     0.024 C 
BRANCH  49  50
ATOM     50  CD  ARG A   5      25.838  11.390  -5.014  1.00  0.00     0.116 C 
BRANCH  50  51
ATOM     51  NE  ARG A   5      25.377  10.686  -3.820  1.00  0.00    -0.357 N 
ATOM     52  CZ  ARG A   5      25.469  11.281  -2.527  1.00  0.00     0.185 C 
ATOM     53  NH2 ARG A   5      26.107  12.546  -2.352  1.00  0.00    -0.370 N 
ATOM     54  H   UNL     1      24.893   9.763  -3.911  1.00  0.00     0.163 HD
ATOM     55  H   UNL     1      26.696  12.982  -3.094  1.00  0.00     0.159 HD
ATOM     56  H   UNL     1      26.080  13.024  -1.424  1.00  0.00     0.159 HD
BRANCH  52  57
ATOM     57  NH1 ARG A   5      24.955  10.672  -1.507  1.00  0.00    -0.270 NA
ATOM     58  H   UNL     1      24.996  11.077  -0.545  1.00  0.00     0.191 HD
ENDBRANCH  52  57
ENDBRANCH  50  51
ENDBRANCH  49  50
ENDBRANCH  48  49
ENDBRANCH  32  48
ENDBRANCH  29  32
ENDBRANCH  27  28
BRANCH  27  59
ATOM     59  CB  SER A   4      20.656   7.991  -9.296  1.00  0.00     0.191 C 
BRANCH  59  60
ATOM     60  OG  SER A   4      20.501   8.792 -10.438  1.00  0.00    -0.394 OA
ATOM     61  H   UNL     1      19.635   9.268 -10.343  1.00  0.00     0.210 HD
ENDBRANCH  59  60
ENDBRANCH  27  59
ENDBRANCH   3  27
TORSDOF 26
