REMARK SMILES N=C(N)NCCC[C@H](NC(=O)CNC(=O)[C@H](CC(N)=O)NC(=O)[C@H](Cc1ccccc1)NC(=O)[C@@H](N)CO)C(=O)N[C@@H](CC(N)=O)C(=O)O
REMARK SMILES IDX 14 1 15 2 13 3 16 5 21 6 22 7 23 8 24 10 32 11 33 12 34 13
REMARK SMILES IDX 35 15 36 16 37 19 38 20 25 22 26 23 27 24 31 25 28 26 30 27
REMARK SMILES IDX 29 28 17 29 18 30 19 31 20 32 12 35 10 36 9 37 11 38 8 40
REMARK SMILES IDX 39 41 41 42 40 43 42 45 47 46 48 47 49 48 43 50 44 51 45 52
REMARK SMILES IDX 46 53 7 56 6 57 5 58 4 59 2 60 3 61 1 65
REMARK H PARENT 13 4 21 9 32 14 36 17 36 18 38 21 19 33 19 34 9 39 41 44 49 49
REMARK H PARENT 45 54 45 55 4 62 3 63 3 64 1 66
ROOT
ATOM      1  C   ASN A   3      20.060  10.087  -6.467  1.00  0.00     0.243 C 
ATOM      2  O   ASN A   3      20.188   9.174  -5.605  1.00  0.00    -0.273 OA
ATOM      3  N   GLY A   4      20.556   9.913  -7.786  1.00  0.00    -0.345 N 
ATOM      4  H   UNL     1      20.385  10.657  -8.500  1.00  0.00     0.164 HD
ENDROOT
BRANCH   1   5
ATOM      5  CA  ASN A   3      19.351  11.360  -6.133  1.00  0.00     0.180 C 
BRANCH   5   6
ATOM      6  N   ASN A   3      18.092  11.037  -5.513  1.00  0.00    -0.342 N 
ATOM      7  C   PHE A   2      16.891  11.747  -5.774  1.00  0.00     0.243 C 
ATOM      8  O   PHE A   2      16.907  12.792  -6.481  1.00  0.00    -0.273 OA
ATOM      9  H   UNL     1      18.168  10.470  -4.643  1.00  0.00     0.164 HD
BRANCH   7  10
ATOM     10  CA  PHE A   2      15.655  11.312  -5.059  1.00  0.00     0.175 C 
BRANCH  10  11
ATOM     11  N   PHE A   2      14.458  11.740  -5.769  1.00  0.00    -0.343 N 
ATOM     12  C   SER A   1      13.918  13.048  -5.633  1.00  0.00     0.239 C 
ATOM     13  O   SER A   1      14.448  13.866  -4.831  1.00  0.00    -0.273 OA
ATOM     14  H   UNL     1      13.875  11.001  -6.220  1.00  0.00     0.164 HD
BRANCH  12  15
ATOM     15  CA  SER A   1      12.662  13.412  -6.387  1.00  0.00     0.167 C 
BRANCH  15  16
ATOM     16  N   SER A   1      12.457  14.862  -6.397  1.00  0.00    -0.318 NA
ATOM     17  H   UNL     1      13.318  15.336  -6.758  1.00  0.00     0.119 HD
ATOM     18  H   UNL     1      12.292  15.192  -5.418  1.00  0.00     0.119 HD
ENDBRANCH  15  16
BRANCH  15  19
ATOM     19  CB  SER A   1      12.690  12.888  -7.841  1.00  0.00     0.184 C 
BRANCH  19  20
ATOM     20  OG  SER A   1      11.437  13.050  -8.444  1.00  0.00    -0.394 OA
ATOM     21  H   UNL     1      11.386  13.993  -8.750  1.00  0.00     0.210 HD
ENDBRANCH  19  20
ENDBRANCH  15  19
ENDBRANCH  12  15
ENDBRANCH  10  11
BRANCH  10  22
ATOM     22  CB  PHE A   2      15.614   9.773  -4.888  1.00  0.00     0.070 C 
BRANCH  22  23
ATOM     23  CG  PHE A   2      14.442   9.290  -4.091  1.00  0.00    -0.045 A 
ATOM     24  CD1 PHE A   2      13.902  10.047  -3.033  1.00  0.00     0.004 A 
ATOM     25  CD2 PHE A   2      13.967   7.990  -4.310  1.00  0.00     0.004 A 
ATOM     26  CE1 PHE A   2      12.868   9.536  -2.260  1.00  0.00     0.000 A 
ATOM     27  CE2 PHE A   2      12.939   7.477  -3.521  1.00  0.00     0.000 A 
ATOM     28  CZ  PHE A   2      12.386   8.253  -2.502  1.00  0.00     0.000 A 
ENDBRANCH  22  23
ENDBRANCH  10  22
ENDBRANCH   7  10
ENDBRANCH   5   6
BRANCH   5  29
ATOM     29  CB  ASN A   3      20.180  12.258  -5.203  1.00  0.00     0.134 C 
BRANCH  29  30
ATOM     30  CG  ASN A   3      20.418  11.670  -3.835  1.00  0.00     0.220 C 
ATOM     31  ND2 ASN A   3      19.492  11.904  -2.773  1.00  0.00    -0.370 N 
ATOM     32  OD1 ASN A   3      21.440  10.963  -3.626  1.00  0.00    -0.275 OA
ATOM     33  H   UNL     1      18.638  12.484  -2.929  1.00  0.00     0.159 HD
ATOM     34  H   UNL     1      19.657  11.490  -1.829  1.00  0.00     0.159 HD
ENDBRANCH  29  30
ENDBRANCH   5  29
ENDBRANCH   1   5
BRANCH   3  35
ATOM     35  CA  GLY A   4      21.330   8.757  -8.191  1.00  0.00     0.216 C 
BRANCH  35  36
ATOM     36  C   GLY A   4      22.704   9.205  -8.534  1.00  0.00     0.240 C 
ATOM     37  N   ARG A   5      23.806   8.708  -7.787  1.00  0.00    -0.343 N 
ATOM     38  O   GLY A   4      22.880  10.029  -9.472  1.00  0.00    -0.273 OA
ATOM     39  H   UNL     1      23.641   7.991  -7.044  1.00  0.00     0.164 HD
BRANCH  37  40
ATOM     40  CA  ARG A   5      25.174   9.114  -8.068  1.00  0.00     0.171 C 
BRANCH  40  41
ATOM     41  C   ARG A   5      25.896   7.965  -8.684  1.00  0.00     0.243 C 
ATOM     42  N   ASN A   6      25.915   7.866 -10.101  1.00  0.00    -0.341 N 
ATOM     43  O   ARG A   5      26.447   7.086  -7.969  1.00  0.00    -0.273 OA
ATOM     44  H   UNL     1      25.496   8.652 -10.650  1.00  0.00     0.164 HD
BRANCH  42  45
ATOM     45  CA  ASN A   6      26.543   6.752 -10.803  1.00  0.00     0.201 C 
BRANCH  45  46
ATOM     46  C   ASN A   6      27.993   6.642 -10.416  1.00  0.00     0.326 C 
ATOM     47  O   ASN A   6      28.795   7.579 -10.677  1.00  0.00    -0.250 OA
BRANCH  46  48
ATOM     48  OXT ASN A   6      28.452   5.499  -9.769  1.00  0.00    -0.480 OA
ATOM     49  H   UNL     1      29.425   5.409  -9.501  1.00  0.00     0.296 HD
ENDBRANCH  46  48
ENDBRANCH  45  46
BRANCH  45  50
ATOM     50  CB  ASN A   6      26.424   6.947 -12.323  1.00  0.00     0.136 C 
BRANCH  50  51
ATOM     51  CG  ASN A   6      25.010   7.182 -12.772  1.00  0.00     0.220 C 
ATOM     52  ND2 ASN A   6      24.754   8.089 -13.834  1.00  0.00    -0.370 N 
ATOM     53  OD1 ASN A   6      24.051   6.563 -12.238  1.00  0.00    -0.275 OA
ATOM     54  H   UNL     1      23.775   8.257 -14.157  1.00  0.00     0.159 HD
ATOM     55  H   UNL     1      25.534   8.596 -14.309  1.00  0.00     0.159 HD
ENDBRANCH  50  51
ENDBRANCH  45  50
ENDBRANCH  42  45
ENDBRANCH  40  41
BRANCH  40  56
ATOM     56  CB  ARG A   5      25.851   9.597  -6.791  1.00  0.00     0.037 C 
BRANCH  56  57
ATOM     57  CG  ARG A   5      25.162  10.858  -6.270  1.00  0.00     0.024 C 
BRANCH  57  58
ATOM     58  CD  ARG A   5      25.840  11.389  -5.014  1.00  0.00     0.116 C 
BRANCH  58  59
ATOM     59  NE  ARG A   5      25.376  10.687  -3.820  1.00  0.00    -0.357 N 
ATOM     60  CZ  ARG A   5      25.469  11.282  -2.526  1.00  0.00     0.185 C 
ATOM     61  NH2 ARG A   5      26.109  12.545  -2.352  1.00  0.00    -0.370 N 
ATOM     62  H   UNL     1      24.892   9.764  -3.911  1.00  0.00     0.163 HD
ATOM     63  H   UNL     1      26.084  13.022  -1.423  1.00  0.00     0.159 HD
ATOM     64  H   UNL     1      26.698  12.981  -3.094  1.00  0.00     0.159 HD
BRANCH  60  65
ATOM     65  NH1 ARG A   5      24.955  10.672  -1.506  1.00  0.00    -0.270 NA
ATOM     66  H   UNL     1      24.999  11.076  -0.544  1.00  0.00     0.191 HD
ENDBRANCH  60  65
ENDBRANCH  58  59
ENDBRANCH  57  58
ENDBRANCH  56  57
ENDBRANCH  40  56
ENDBRANCH  37  40
ENDBRANCH  35  36
ENDBRANCH   3  35
TORSDOF 26
