REMARK SMILES CC(C)C[C@H](NC(=O)CNC(=O)[C@H](CCC(N)=O)NC(=O)[C@@H](N)CO)C(=O)N[C@@H](CCCNC(=N)N)C(=O)N[C@@H](CC(N)=O)C(=O)O
REMARK SMILES IDX 7 1 8 2 6 3 9 5 10 6 11 7 12 8 13 10 19 11 20 12 21 13 22 15
REMARK SMILES IDX 23 16 24 19 25 20 14 22 15 23 16 24 17 25 18 26 5 29 26 30
REMARK SMILES IDX 28 31 27 32 29 34 37 35 39 36 38 37 40 39 45 40 46 41 47 42
REMARK SMILES IDX 41 44 42 45 43 46 44 47 30 50 31 51 32 52 33 53 34 54 36 55
REMARK SMILES IDX 35 59 4 61 2 62 1 63 3 64
REMARK H PARENT 6 4 10 9 19 14 23 17 23 18 25 21 17 27 17 28 28 33 39 38 47 43
REMARK H PARENT 43 48 43 49 33 56 36 57 36 58 35 60
ROOT
ATOM      1  C   GLY A   3       1.827   0.873   0.783  1.00  0.00     0.240 C 
ATOM      2  O   GLY A   3       1.467  -0.259   0.361  1.00  0.00    -0.273 OA
ATOM      3  N   LEU A   4       0.880   1.946   0.946  1.00  0.00    -0.343 N 
ATOM      4  H   UNL     1       1.256   2.842   1.331  1.00  0.00     0.164 HD
ENDROOT
BRANCH   1   5
ATOM      5  CA  GLY A   3       3.255   1.092   1.184  1.00  0.00     0.216 C 
BRANCH   5   6
ATOM      6  N   GLY A   3       4.156   0.275   0.372  1.00  0.00    -0.345 N 
ATOM      7  C   GLN A   2       4.778  -0.919   0.871  1.00  0.00     0.243 C 
ATOM      8  O   GLN A   2       4.407  -1.409   1.974  1.00  0.00    -0.273 OA
ATOM      9  H   UNL     1       4.354   0.581  -0.609  1.00  0.00     0.164 HD
BRANCH   7  10
ATOM     10  CA  GLN A   2       5.870  -1.583   0.064  1.00  0.00     0.171 C 
BRANCH  10  11
ATOM     11  N   GLN A   2       6.881  -0.591  -0.320  1.00  0.00    -0.343 N 
ATOM     12  C   SER A   1       7.588   0.240   0.621  1.00  0.00     0.239 C 
ATOM     13  O   SER A   1       7.418   0.082   1.861  1.00  0.00    -0.273 OA
ATOM     14  H   UNL     1       7.034  -0.433  -1.341  1.00  0.00     0.164 HD
BRANCH  12  15
ATOM     15  CA  SER A   1       8.493   1.345   0.142  1.00  0.00     0.167 C 
BRANCH  15  16
ATOM     16  N   SER A   1       9.360   0.869  -0.937  1.00  0.00    -0.318 NA
ATOM     17  H   UNL     1       9.966   0.108  -0.557  1.00  0.00     0.119 HD
ATOM     18  H   UNL     1      10.006   1.644  -1.209  1.00  0.00     0.119 HD
ENDBRANCH  15  16
BRANCH  15  19
ATOM     19  CB  SER A   1       7.665   2.557  -0.320  1.00  0.00     0.184 C 
BRANCH  19  20
ATOM     20  OG  SER A   1       6.869   2.243  -1.433  1.00  0.00    -0.394 OA
ATOM     21  H   UNL     1       7.458   2.298  -2.230  1.00  0.00     0.210 HD
ENDBRANCH  19  20
ENDBRANCH  15  19
ENDBRANCH  12  15
ENDBRANCH  10  11
BRANCH  10  22
ATOM     22  CB  GLN A   2       6.510  -2.784   0.801  1.00  0.00     0.045 C 
BRANCH  22  23
ATOM     23  CG  GLN A   2       7.511  -3.570  -0.063  1.00  0.00     0.102 C 
BRANCH  23  24
ATOM     24  CD  GLN A   2       8.835  -2.874  -0.187  1.00  0.00     0.217 C 
ATOM     25  NE2 GLN A   2       9.685  -2.727   0.950  1.00  0.00    -0.370 N 
ATOM     26  OE1 GLN A   2       9.204  -2.422  -1.304  1.00  0.00    -0.275 OA
ATOM     27  H   UNL     1       9.406  -3.117   1.876  1.00  0.00     0.159 HD
ATOM     28  H   UNL     1      10.590  -2.212   0.871  1.00  0.00     0.159 HD
ENDBRANCH  23  24
ENDBRANCH  22  23
ENDBRANCH  10  22
ENDBRANCH   7  10
ENDBRANCH   5   6
ENDBRANCH   1   5
BRANCH   3  29
ATOM     29  CA  LEU A   4      -0.549   1.963   0.585  1.00  0.00     0.171 C 
BRANCH  29  30
ATOM     30  C   LEU A   4      -1.341   0.734   0.988  1.00  0.00     0.243 C 
ATOM     31  N   ARG A   5      -2.758   0.707   0.765  1.00  0.00    -0.343 N 
ATOM     32  O   LEU A   4      -0.795  -0.210   1.618  1.00  0.00    -0.273 OA
ATOM     33  H   UNL     1      -3.243   1.610   0.558  1.00  0.00     0.164 HD
BRANCH  31  34
ATOM     34  CA  ARG A   5      -3.544  -0.531   0.800  1.00  0.00     0.171 C 
BRANCH  34  35
ATOM     35  C   ARG A   5      -4.757  -0.366  -0.083  1.00  0.00     0.243 C 
ATOM     36  N   ASN A   6      -5.733   0.654   0.201  1.00  0.00    -0.341 N 
ATOM     37  O   ARG A   5      -4.871  -1.089  -1.110  1.00  0.00    -0.273 OA
ATOM     38  H   UNL     1      -5.696   1.128   1.131  1.00  0.00     0.164 HD
BRANCH  36  39
ATOM     39  CA  ASN A   6      -6.650   1.222  -0.793  1.00  0.00     0.201 C 
BRANCH  39  40
ATOM     40  C   ASN A   6      -7.710   0.226  -1.176  1.00  0.00     0.326 C 
ATOM     41  O   ASN A   6      -7.486  -0.654  -2.051  1.00  0.00    -0.250 OA
BRANCH  40  42
ATOM     42  OXT ASN A   6      -8.948   0.267  -0.541  1.00  0.00    -0.480 OA
ATOM     43  H   UNL     1      -9.680  -0.390  -0.782  1.00  0.00     0.296 HD
ENDBRANCH  40  42
ENDBRANCH  39  40
BRANCH  39  44
ATOM     44  CB  ASN A   6      -5.876   1.775  -2.008  1.00  0.00     0.136 C 
BRANCH  44  45
ATOM     45  CG  ASN A   6      -6.763   2.612  -2.884  1.00  0.00     0.220 C 
ATOM     46  ND2 ASN A   6      -6.999   3.983  -2.571  1.00  0.00    -0.370 N 
ATOM     47  OD1 ASN A   6      -7.334   2.092  -3.878  1.00  0.00    -0.275 OA
ATOM     48  H   UNL     1      -6.550   4.421  -1.737  1.00  0.00     0.159 HD
ATOM     49  H   UNL     1      -7.637   4.558  -3.167  1.00  0.00     0.159 HD
ENDBRANCH  44  45
ENDBRANCH  39  44
ENDBRANCH  36  39
ENDBRANCH  34  35
BRANCH  34  50
ATOM     50  CB  ARG A   5      -3.919  -0.885   2.256  1.00  0.00     0.037 C 
BRANCH  50  51
ATOM     51  CG  ARG A   5      -4.428  -2.335   2.437  1.00  0.00     0.024 C 
BRANCH  51  52
ATOM     52  CD  ARG A   5      -5.943  -2.432   2.703  1.00  0.00     0.116 C 
BRANCH  52  53
ATOM     53  NE  ARG A   5      -6.716  -2.528   1.464  1.00  0.00    -0.357 N 
ATOM     54  CZ  ARG A   5      -8.148  -2.662   1.435  1.00  0.00     0.185 C 
ATOM     55  NH2 ARG A   5      -8.803  -2.905   0.191  1.00  0.00    -0.370 N 
ATOM     56  H   UNL     1      -6.212  -2.602   0.554  1.00  0.00     0.163 HD
ATOM     57  H   UNL     1      -8.252  -2.993  -0.692  1.00  0.00     0.159 HD
ATOM     58  H   UNL     1      -9.843  -2.988   0.146  1.00  0.00     0.159 HD
BRANCH  54  59
ATOM     59  NH1 ARG A   5      -8.861  -2.576   2.515  1.00  0.00    -0.270 NA
ATOM     60  H   UNL     1      -8.458  -2.405   3.461  1.00  0.00     0.191 HD
ENDBRANCH  54  59
ENDBRANCH  52  53
ENDBRANCH  51  52
ENDBRANCH  50  51
ENDBRANCH  34  50
ENDBRANCH  31  34
ENDBRANCH  29  30
BRANCH  29  61
ATOM     61  CB  LEU A   4      -0.797   2.468  -0.865  1.00  0.00     0.038 C 
BRANCH  61  62
ATOM     62  CG  LEU A   4      -0.383   1.606  -2.090  1.00  0.00    -0.015 C 
ATOM     63  CD1 LEU A   4      -0.945   0.181  -2.077  1.00  0.00     0.007 C 
ATOM     64  CD2 LEU A   4       1.124   1.626  -2.389  1.00  0.00     0.007 C 
ENDBRANCH  61  62
ENDBRANCH  29  61
ENDBRANCH   3  29
TORSDOF 27
