REMARK SMILES CC(C)C[C@H](NC(=O)[C@H](Cc1c[nH]cn1)NC(=O)[C@H](Cc1ccccc1)NC(=O)[C@@H](N)CO)C(=O)N[C@@H](C)C(=O)N[C@@H](CC(N)=O)C(=O)O
REMARK SMILES IDX 7 1 8 2 6 3 9 5 16 6 17 7 18 8 19 10 27 11 28 12 29 13 30 15
REMARK SMILES IDX 31 16 32 19 33 20 20 22 21 23 22 24 26 25 23 26 25 27 24 28
REMARK SMILES IDX 10 29 11 30 15 31 12 32 14 33 13 34 5 36 34 37 36 38 35 39
REMARK SMILES IDX 37 41 38 42 39 43 41 44 40 45 42 47 47 48 48 49 49 50 43 52
REMARK SMILES IDX 44 53 45 54 46 55 4 58 2 59 1 60 3 61
REMARK H PARENT 6 4 16 9 27 14 31 17 31 18 33 21 13 35 36 40 41 46 49 51 45 56
REMARK H PARENT 45 57
ROOT
ATOM      1  C   HIS A   3      -0.622  -0.223  -0.292  1.00  0.00     0.243 C 
ATOM      2  O   HIS A   3      -1.024  -0.975   0.641  1.00  0.00    -0.273 OA
ATOM      3  N   LEU A   4       0.400  -0.671  -1.192  1.00  0.00    -0.342 N 
ATOM      4  H   UNL     1       0.810   0.022  -1.863  1.00  0.00     0.164 HD
ENDROOT
BRANCH   1   5
ATOM      5  CA  HIS A   3      -1.202   1.163  -0.450  1.00  0.00     0.177 C 
BRANCH   5   6
ATOM      6  N   HIS A   3      -2.625   1.186  -0.076  1.00  0.00    -0.342 N 
ATOM      7  C   PHE A   2      -3.596   0.387  -0.781  1.00  0.00     0.243 C 
ATOM      8  O   PHE A   2      -3.217  -0.392  -1.702  1.00  0.00    -0.273 OA
ATOM      9  H   UNL     1      -2.966   1.926   0.580  1.00  0.00     0.164 HD
BRANCH   7  10
ATOM     10  CA  PHE A   2      -5.068   0.485  -0.446  1.00  0.00     0.175 C 
BRANCH  10  11
ATOM     11  N   PHE A   2      -5.853  -0.308  -1.404  1.00  0.00    -0.343 N 
ATOM     12  C   SER A   1      -6.179   0.173  -2.719  1.00  0.00     0.239 C 
ATOM     13  O   SER A   1      -5.845   1.338  -3.067  1.00  0.00    -0.273 OA
ATOM     14  H   UNL     1      -6.065  -1.304  -1.173  1.00  0.00     0.164 HD
BRANCH  12  15
ATOM     15  CA  SER A   1      -6.910  -0.709  -3.706  1.00  0.00     0.167 C 
BRANCH  15  16
ATOM     16  N   SER A   1      -6.098  -1.882  -4.060  1.00  0.00    -0.318 NA
ATOM     17  H   UNL     1      -5.194  -1.546  -4.468  1.00  0.00     0.119 HD
ATOM     18  H   UNL     1      -5.875  -2.439  -3.204  1.00  0.00     0.119 HD
ENDBRANCH  15  16
BRANCH  15  19
ATOM     19  CB  SER A   1      -8.277  -1.142  -3.154  1.00  0.00     0.184 C 
BRANCH  19  20
ATOM     20  OG  SER A   1      -9.010  -1.819  -4.137  1.00  0.00    -0.394 OA
ATOM     21  H   UNL     1      -8.752  -2.782  -4.080  1.00  0.00     0.210 HD
ENDBRANCH  19  20
ENDBRANCH  15  19
ENDBRANCH  12  15
ENDBRANCH  10  11
BRANCH  10  22
ATOM     22  CB  PHE A   2      -5.349  -0.009   0.996  1.00  0.00     0.070 C 
BRANCH  22  23
ATOM     23  CG  PHE A   2      -5.344   1.117   1.999  1.00  0.00    -0.045 A 
ATOM     24  CD1 PHE A   2      -6.394   2.051   2.005  1.00  0.00     0.004 A 
ATOM     25  CD2 PHE A   2      -4.317   1.231   2.950  1.00  0.00     0.004 A 
ATOM     26  CE1 PHE A   2      -6.408   3.088   2.942  1.00  0.00     0.000 A 
ATOM     27  CE2 PHE A   2      -4.346   2.264   3.894  1.00  0.00     0.000 A 
ATOM     28  CZ  PHE A   2      -5.384   3.197   3.886  1.00  0.00     0.000 A 
ENDBRANCH  22  23
ENDBRANCH  10  22
ENDBRANCH   7  10
ENDBRANCH   5   6
BRANCH   5  29
ATOM     29  CB  HIS A   3      -0.376   2.207   0.332  1.00  0.00     0.093 C 
BRANCH  29  30
ATOM     30  CG  HIS A   3      -0.278   1.907   1.802  1.00  0.00     0.061 A 
ATOM     31  ND1 HIS A   3       0.566   0.993   2.331  1.00  0.00    -0.242 NA
ATOM     32  CD2 HIS A   3      -1.018   2.493   2.803  1.00  0.00     0.107 A 
ATOM     33  CE1 HIS A   3       0.311   1.042   3.656  1.00  0.00     0.196 A 
ATOM     34  NE2 HIS A   3      -0.640   1.943   3.969  1.00  0.00    -0.351 N 
ATOM     35  H   UNL     1      -0.998   2.172   4.920  1.00  0.00     0.167 HD
ENDBRANCH  29  30
ENDBRANCH   5  29
ENDBRANCH   1   5
BRANCH   3  36
ATOM     36  CA  LEU A   4       0.972  -2.017  -1.131  1.00  0.00     0.171 C 
BRANCH  36  37
ATOM     37  C   LEU A   4       2.195  -1.985  -0.253  1.00  0.00     0.243 C 
ATOM     38  N   ALA A   5       3.322  -1.165  -0.601  1.00  0.00    -0.343 N 
ATOM     39  O   LEU A   4       2.208  -2.662   0.810  1.00  0.00    -0.273 OA
ATOM     40  H   UNL     1       3.249  -0.555  -1.448  1.00  0.00     0.164 HD
BRANCH  38  41
ATOM     41  CA  ALA A   5       4.582  -1.211   0.149  1.00  0.00     0.168 C 
ATOM     42  CB  ALA A   5       5.397  -2.440  -0.260  1.00  0.00     0.041 C 
BRANCH  41  43
ATOM     43  C   ALA A   5       5.393   0.040  -0.082  1.00  0.00     0.243 C 
ATOM     44  N   ASN A   6       6.006   0.716   1.025  1.00  0.00    -0.341 N 
ATOM     45  O   ALA A   5       5.575   0.462  -1.260  1.00  0.00    -0.273 OA
ATOM     46  H   UNL     1       5.794   0.390   1.994  1.00  0.00     0.164 HD
BRANCH  44  47
ATOM     47  CA  ASN A   6       6.926   1.843   0.832  1.00  0.00     0.201 C 
BRANCH  47  48
ATOM     48  C   ASN A   6       8.246   1.338   0.313  1.00  0.00     0.326 C 
ATOM     49  O   ASN A   6       8.790   0.326   0.834  1.00  0.00    -0.250 OA
BRANCH  48  50
ATOM     50  OXT ASN A   6       8.891   2.028  -0.712  1.00  0.00    -0.480 OA
ATOM     51  H   UNL     1       9.792   1.717  -1.062  1.00  0.00     0.296 HD
ENDBRANCH  48  50
ENDBRANCH  47  48
BRANCH  47  52
ATOM     52  CB  ASN A   6       7.112   2.616   2.153  1.00  0.00     0.136 C 
BRANCH  52  53
ATOM     53  CG  ASN A   6       7.947   3.852   1.963  1.00  0.00     0.220 C 
ATOM     54  ND2 ASN A   6       9.333   3.848   2.313  1.00  0.00    -0.370 N 
ATOM     55  OD1 ASN A   6       7.432   4.886   1.453  1.00  0.00    -0.275 OA
ATOM     56  H   UNL     1       9.920   4.700   2.162  1.00  0.00     0.159 HD
ATOM     57  H   UNL     1       9.785   2.991   2.705  1.00  0.00     0.159 HD
ENDBRANCH  52  53
ENDBRANCH  47  52
ENDBRANCH  44  47
ENDBRANCH  41  43
ENDBRANCH  38  41
ENDBRANCH  36  37
BRANCH  36  58
ATOM     58  CB  LEU A   4       1.290  -2.509  -2.565  1.00  0.00     0.038 C 
BRANCH  58  59
ATOM     59  CG  LEU A   4       1.335  -4.051  -2.711  1.00  0.00    -0.015 C 
ATOM     60  CD1 LEU A   4       2.546  -4.673  -2.001  1.00  0.00     0.007 C 
ATOM     61  CD2 LEU A   4       1.363  -4.427  -4.199  1.00  0.00     0.007 C 
ENDBRANCH  58  59
ENDBRANCH  36  58
ENDBRANCH   3  36
TORSDOF 23
