REMARK SMILES CC(C)C[C@H](NC(=O)[C@H](CCCCN)NC(=O)[C@H](Cc1ccccc1)NC(=O)[C@@H](N)CO)C(=O)N[C@@H](CCCNC(=N)N)C(=O)N[C@@H](CCCCN)C(=O)O
REMARK SMILES IDX 33 1 34 2 35 3 5 5 6 6 7 7 8 8 9 10 15 11 16 12 17 13 18 15
REMARK SMILES IDX 26 16 27 17 28 18 29 20 30 21 31 24 32 25 19 27 20 28 21 29
REMARK SMILES IDX 25 30 22 31 24 32 23 33 10 34 11 35 12 36 13 37 14 38 4 41
REMARK SMILES IDX 2 42 1 43 3 44 36 45 44 46 46 47 45 48 47 50 53 51 54 52
REMARK SMILES IDX 55 53 48 55 49 56 50 57 51 58 52 59 37 62 38 63 39 64 40 65
REMARK SMILES IDX 41 66 43 67 42 71
REMARK H PARENT 35 4 6 9 15 14 26 19 30 22 30 23 32 26 14 39 14 40 46 49 55 54
REMARK H PARENT 52 60 52 61 40 68 43 69 43 70 42 72
ROOT
ATOM      1  C   LEU A   4      22.714   9.215  -8.522  1.00  0.00     0.243 C 
ATOM      2  O   LEU A   4      22.879  10.032  -9.469  1.00  0.00    -0.273 OA
ATOM      3  N   ARG A   5      23.822   8.720  -7.784  1.00  0.00    -0.343 N 
ATOM      4  H   UNL     1      23.666   8.031  -7.013  1.00  0.00     0.164 HD
ENDROOT
BRANCH   1   5
ATOM      5  CA  LEU A   4      21.349   8.759  -8.143  1.00  0.00     0.171 C 
BRANCH   5   6
ATOM      6  N   LEU A   4      20.565   9.921  -7.778  1.00  0.00    -0.343 N 
ATOM      7  C   LYS A   3      20.036  10.082  -6.472  1.00  0.00     0.243 C 
ATOM      8  O   LYS A   3      20.148   9.160  -5.617  1.00  0.00    -0.273 OA
ATOM      9  H   UNL     1      20.406  10.664  -8.497  1.00  0.00     0.164 HD
BRANCH   7  10
ATOM     10  CA  LYS A   3      19.335  11.356  -6.141  1.00  0.00     0.171 C 
BRANCH  10  11
ATOM     11  N   LYS A   3      18.086  11.048  -5.497  1.00  0.00    -0.343 N 
ATOM     12  C   PHE A   2      16.884  11.750  -5.772  1.00  0.00     0.243 C 
ATOM     13  O   PHE A   2      16.901  12.792  -6.483  1.00  0.00    -0.273 OA
ATOM     14  H   UNL     1      18.163  10.515  -4.605  1.00  0.00     0.164 HD
BRANCH  12  15
ATOM     15  CA  PHE A   2      15.649  11.313  -5.059  1.00  0.00     0.175 C 
BRANCH  15  16
ATOM     16  N   PHE A   2      14.451  11.740  -5.769  1.00  0.00    -0.343 N 
ATOM     17  C   SER A   1      13.914  13.051  -5.637  1.00  0.00     0.239 C 
ATOM     18  O   SER A   1      14.449  13.870  -4.839  1.00  0.00    -0.273 OA
ATOM     19  H   UNL     1      13.858  11.001  -6.206  1.00  0.00     0.164 HD
BRANCH  17  20
ATOM     20  CA  SER A   1      12.655  13.411  -6.383  1.00  0.00     0.167 C 
BRANCH  20  21
ATOM     21  N   SER A   1      12.467  14.863  -6.382  1.00  0.00    -0.318 NA
ATOM     22  H   UNL     1      12.304  15.175  -5.397  1.00  0.00     0.119 HD
ATOM     23  H   UNL     1      11.581  15.088  -6.891  1.00  0.00     0.119 HD
ENDBRANCH  20  21
BRANCH  20  24
ATOM     24  CB  SER A   1      12.694  12.894  -7.842  1.00  0.00     0.184 C 
BRANCH  24  25
ATOM     25  OG  SER A   1      11.440  13.037  -8.449  1.00  0.00    -0.394 OA
ATOM     26  H   UNL     1      10.855  12.332  -8.065  1.00  0.00     0.210 HD
ENDBRANCH  24  25
ENDBRANCH  20  24
ENDBRANCH  17  20
ENDBRANCH  15  16
BRANCH  15  27
ATOM     27  CB  PHE A   2      15.611   9.774  -4.892  1.00  0.00     0.070 C 
BRANCH  27  28
ATOM     28  CG  PHE A   2      14.444   9.289  -4.090  1.00  0.00    -0.045 A 
ATOM     29  CD1 PHE A   2      13.903  10.046  -3.033  1.00  0.00     0.004 A 
ATOM     30  CD2 PHE A   2      13.968   7.989  -4.310  1.00  0.00     0.004 A 
ATOM     31  CE1 PHE A   2      12.869   9.535  -2.260  1.00  0.00     0.000 A 
ATOM     32  CE2 PHE A   2      12.939   7.477  -3.521  1.00  0.00     0.000 A 
ATOM     33  CZ  PHE A   2      12.386   8.252  -2.502  1.00  0.00     0.000 A 
ENDBRANCH  27  28
ENDBRANCH  15  27
ENDBRANCH  12  15
ENDBRANCH  10  11
BRANCH  10  34
ATOM     34  CB  LYS A   3      20.187  12.252  -5.239  1.00  0.00     0.035 C 
BRANCH  34  35
ATOM     35  CG  LYS A   3      20.430  11.700  -3.814  1.00  0.00     0.004 C 
BRANCH  35  36
ATOM     36  CD  LYS A   3      21.816  12.087  -3.292  1.00  0.00     0.015 C 
BRANCH  36  37
ATOM     37  CE  LYS A   3      21.945  13.596  -3.049  1.00  0.00     0.077 C 
BRANCH  37  38
ATOM     38  NZ  LYS A   3      23.256  13.905  -2.488  1.00  0.00    -0.330 NA
ATOM     39  H   UNL     1      23.288  13.538  -1.509  1.00  0.00     0.118 HD
ATOM     40  H   UNL     1      23.336  14.945  -2.417  1.00  0.00     0.118 HD
ENDBRANCH  37  38
ENDBRANCH  36  37
ENDBRANCH  35  36
ENDBRANCH  34  35
ENDBRANCH  10  34
ENDBRANCH   7  10
ENDBRANCH   5   6
BRANCH   5  41
ATOM     41  CB  LEU A   4      20.658   7.999  -9.276  1.00  0.00     0.038 C 
BRANCH  41  42
ATOM     42  CG  LEU A   4      21.451   6.770  -9.773  1.00  0.00    -0.015 C 
ATOM     43  CD1 LEU A   4      21.764   5.779  -8.641  1.00  0.00     0.007 C 
ATOM     44  CD2 LEU A   4      20.662   6.065 -10.879  1.00  0.00     0.007 C 
ENDBRANCH  41  42
ENDBRANCH   5  41
ENDBRANCH   1   5
BRANCH   3  45
ATOM     45  CA  ARG A   5      25.186   9.121  -8.070  1.00  0.00     0.171 C 
BRANCH  45  46
ATOM     46  C   ARG A   5      25.899   7.968  -8.684  1.00  0.00     0.243 C 
ATOM     47  N   LYS A   6      25.919   7.875 -10.101  1.00  0.00    -0.341 N 
ATOM     48  O   ARG A   5      26.444   7.083  -7.971  1.00  0.00    -0.273 OA
ATOM     49  H   UNL     1      25.563   8.698 -10.637  1.00  0.00     0.164 HD
BRANCH  47  50
ATOM     50  CA  LYS A   6      26.538   6.764 -10.815  1.00  0.00     0.192 C 
BRANCH  50  51
ATOM     51  C   LYS A   6      27.988   6.644 -10.425  1.00  0.00     0.326 C 
ATOM     52  O   LYS A   6      28.795   7.578 -10.679  1.00  0.00    -0.250 OA
BRANCH  51  53
ATOM     53  OXT LYS A   6      28.439   5.493  -9.786  1.00  0.00    -0.480 OA
ATOM     54  H   UNL     1      29.410   5.395  -9.517  1.00  0.00     0.296 HD
ENDBRANCH  51  53
ENDBRANCH  50  51
BRANCH  50  55
ATOM     55  CB  LYS A   6      26.421   6.981 -12.334  1.00  0.00     0.037 C 
BRANCH  55  56
ATOM     56  CG  LYS A   6      24.961   7.139 -12.800  1.00  0.00     0.004 C 
BRANCH  56  57
ATOM     57  CD  LYS A   6      24.789   6.925 -14.313  1.00  0.00     0.015 C 
BRANCH  57  58
ATOM     58  CE  LYS A   6      25.394   8.052 -15.165  1.00  0.00     0.077 C 
BRANCH  58  59
ATOM     59  NZ  LYS A   6      26.846   7.923 -15.251  1.00  0.00    -0.330 NA
ATOM     60  H   UNL     1      27.067   7.078 -15.827  1.00  0.00     0.118 HD
ATOM     61  H   UNL     1      27.207   8.748 -15.783  1.00  0.00     0.118 HD
ENDBRANCH  58  59
ENDBRANCH  57  58
ENDBRANCH  56  57
ENDBRANCH  55  56
ENDBRANCH  50  55
ENDBRANCH  47  50
ENDBRANCH  45  46
BRANCH  45  62
ATOM     62  CB  ARG A   5      25.862   9.605  -6.793  1.00  0.00     0.037 C 
BRANCH  62  63
ATOM     63  CG  ARG A   5      25.166  10.861  -6.271  1.00  0.00     0.024 C 
BRANCH  63  64
ATOM     64  CD  ARG A   5      25.838  11.393  -5.013  1.00  0.00     0.116 C 
BRANCH  64  65
ATOM     65  NE  ARG A   5      25.376  10.685  -3.823  1.00  0.00    -0.357 N 
ATOM     66  CZ  ARG A   5      25.470  11.278  -2.526  1.00  0.00     0.185 C 
ATOM     67  NH2 ARG A   5      26.112  12.538  -2.349  1.00  0.00    -0.370 N 
ATOM     68  H   UNL     1      24.893   9.763  -3.922  1.00  0.00     0.163 HD
ATOM     69  H   UNL     1      26.694  12.982  -3.091  1.00  0.00     0.159 HD
ATOM     70  H   UNL     1      26.093  13.002  -1.413  1.00  0.00     0.159 HD
BRANCH  66  71
ATOM     71  NH1 ARG A   5      24.956  10.680  -1.499  1.00  0.00    -0.270 NA
ATOM     72  H   UNL     1      24.470   9.760  -1.584  1.00  0.00     0.191 HD
ENDBRANCH  66  71
ENDBRANCH  64  65
ENDBRANCH  63  64
ENDBRANCH  62  63
ENDBRANCH  45  62
ENDBRANCH   3  45
TORSDOF 34
