REMARK SMILES CC(C)C[C@H](NC(=O)[C@H](CCCNC(=N)N)NC(=O)[C@H](Cc1ccccc1)NC(=O)[C@@H](N)CO)C(=O)N[C@@H](CCCNC(=N)N)C(=O)N[C@@H](C)C(=O)O
REMARK SMILES IDX 7 1 8 2 6 3 9 5 17 6 18 7 19 8 20 10 28 11 29 12 30 13 31 15
REMARK SMILES IDX 32 16 33 19 34 20 21 22 22 23 23 24 27 25 24 26 26 27 25 28
REMARK SMILES IDX 10 29 11 30 12 31 13 32 14 33 16 34 15 38 5 40 35 41 37 42
REMARK SMILES IDX 36 43 38 45 46 46 48 47 47 48 49 50 50 51 51 52 52 53 53 54
REMARK SMILES IDX 39 56 40 57 41 58 42 59 43 60 45 61 44 65 4 67 2 68 1 69
REMARK SMILES IDX 3 70
REMARK H PARENT 6 4 17 9 28 14 32 17 32 18 34 21 13 35 16 36 16 37 15 39 37 44
REMARK H PARENT 48 49 53 55 42 62 45 63 45 64 44 66
ROOT
ATOM      1  C   ARG A   3      20.038  10.083  -6.471  1.00  0.00     0.243 C 
ATOM      2  O   ARG A   3      20.151   9.162  -5.615  1.00  0.00    -0.273 OA
ATOM      3  N   LEU A   4      20.565   9.921  -7.777  1.00  0.00    -0.343 N 
ATOM      4  H   UNL     1      20.404  10.663  -8.496  1.00  0.00     0.164 HD
ENDROOT
BRANCH   1   5
ATOM      5  CA  ARG A   3      19.337  11.357  -6.139  1.00  0.00     0.171 C 
BRANCH   5   6
ATOM      6  N   ARG A   3      18.087  11.049  -5.496  1.00  0.00    -0.343 N 
ATOM      7  C   PHE A   2      16.885  11.750  -5.771  1.00  0.00     0.243 C 
ATOM      8  O   PHE A   2      16.901  12.791  -6.483  1.00  0.00    -0.273 OA
ATOM      9  H   UNL     1      18.163  10.515  -4.606  1.00  0.00     0.164 HD
BRANCH   7  10
ATOM     10  CA  PHE A   2      15.651  11.313  -5.058  1.00  0.00     0.175 C 
BRANCH  10  11
ATOM     11  N   PHE A   2      14.454  11.740  -5.768  1.00  0.00    -0.343 N 
ATOM     12  C   SER A   1      13.918  13.050  -5.633  1.00  0.00     0.239 C 
ATOM     13  O   SER A   1      14.449  13.867  -4.832  1.00  0.00    -0.273 OA
ATOM     14  H   UNL     1      13.864  11.002  -6.209  1.00  0.00     0.164 HD
BRANCH  12  15
ATOM     15  CA  SER A   1      12.661  13.412  -6.386  1.00  0.00     0.167 C 
BRANCH  15  16
ATOM     16  N   SER A   1      12.454  14.861  -6.399  1.00  0.00    -0.318 NA
ATOM     17  H   UNL     1      13.315  15.337  -6.756  1.00  0.00     0.119 HD
ATOM     18  H   UNL     1      12.285  15.191  -5.420  1.00  0.00     0.119 HD
ENDBRANCH  15  16
BRANCH  15  19
ATOM     19  CB  SER A   1      12.689  12.887  -7.840  1.00  0.00     0.184 C 
BRANCH  19  20
ATOM     20  OG  SER A   1      11.438  13.053  -8.445  1.00  0.00    -0.394 OA
ATOM     21  H   UNL     1      10.839  12.361  -8.060  1.00  0.00     0.210 HD
ENDBRANCH  19  20
ENDBRANCH  15  19
ENDBRANCH  12  15
ENDBRANCH  10  11
BRANCH  10  22
ATOM     22  CB  PHE A   2      15.613   9.773  -4.891  1.00  0.00     0.070 C 
BRANCH  22  23
ATOM     23  CG  PHE A   2      14.444   9.289  -4.090  1.00  0.00    -0.045 A 
ATOM     24  CD1 PHE A   2      13.903  10.046  -3.033  1.00  0.00     0.004 A 
ATOM     25  CD2 PHE A   2      13.968   7.989  -4.310  1.00  0.00     0.004 A 
ATOM     26  CE1 PHE A   2      12.869   9.535  -2.260  1.00  0.00     0.000 A 
ATOM     27  CE2 PHE A   2      12.939   7.477  -3.521  1.00  0.00     0.000 A 
ATOM     28  CZ  PHE A   2      12.386   8.252  -2.502  1.00  0.00     0.000 A 
ENDBRANCH  22  23
ENDBRANCH  10  22
ENDBRANCH   7  10
ENDBRANCH   5   6
BRANCH   5  29
ATOM     29  CB  ARG A   3      20.190  12.253  -5.237  1.00  0.00     0.037 C 
BRANCH  29  30
ATOM     30  CG  ARG A   3      20.426  11.705  -3.809  1.00  0.00     0.024 C 
BRANCH  30  31
ATOM     31  CD  ARG A   3      21.823  12.069  -3.302  1.00  0.00     0.116 C 
BRANCH  31  32
ATOM     32  NE  ARG A   3      22.021  13.518  -3.274  1.00  0.00    -0.357 N 
ATOM     33  CZ  ARG A   3      21.426  14.373  -2.286  1.00  0.00     0.185 C 
ATOM     34  NH2 ARG A   3      21.647  15.784  -2.347  1.00  0.00    -0.370 N 
ATOM     35  H   UNL     1      22.671  13.940  -3.974  1.00  0.00     0.163 HD
ATOM     36  H   UNL     1      21.228  16.424  -1.637  1.00  0.00     0.159 HD
ATOM     37  H   UNL     1      22.232  16.194  -3.108  1.00  0.00     0.159 HD
BRANCH  33  38
ATOM     38  NH1 ARG A   3      20.699  13.871  -1.337  1.00  0.00    -0.270 NA
ATOM     39  H   UNL     1      20.259  14.472  -0.606  1.00  0.00     0.191 HD
ENDBRANCH  33  38
ENDBRANCH  31  32
ENDBRANCH  30  31
ENDBRANCH  29  30
ENDBRANCH   5  29
ENDBRANCH   1   5
BRANCH   3  40
ATOM     40  CA  LEU A   4      21.349   8.760  -8.143  1.00  0.00     0.171 C 
BRANCH  40  41
ATOM     41  C   LEU A   4      22.714   9.216  -8.523  1.00  0.00     0.243 C 
ATOM     42  N   ARG A   5      23.823   8.721  -7.788  1.00  0.00    -0.343 N 
ATOM     43  O   LEU A   4      22.877  10.034  -9.469  1.00  0.00    -0.273 OA
ATOM     44  H   UNL     1      23.668   8.031  -7.017  1.00  0.00     0.164 HD
BRANCH  42  45
ATOM     45  CA  ARG A   5      25.186   9.120  -8.078  1.00  0.00     0.171 C 
BRANCH  45  46
ATOM     46  C   ARG A   5      25.898   7.963  -8.692  1.00  0.00     0.243 C 
ATOM     47  N   ALA A   6      25.884   7.840 -10.110  1.00  0.00    -0.341 N 
ATOM     48  O   ARG A   5      26.456   7.091  -7.974  1.00  0.00    -0.273 OA
ATOM     49  H   UNL     1      25.367   8.562 -10.662  1.00  0.00     0.164 HD
BRANCH  47  50
ATOM     50  CA  ALA A   6      26.544   6.745 -10.813  1.00  0.00     0.189 C 
ATOM     51  CB  ALA A   6      26.419   6.955 -12.323  1.00  0.00     0.043 C 
BRANCH  50  52
ATOM     52  C   ALA A   6      27.993   6.651 -10.418  1.00  0.00     0.325 C 
ATOM     53  O   ALA A   6      28.790   7.589 -10.686  1.00  0.00    -0.250 OA
BRANCH  52  54
ATOM     54  OXT ALA A   6      28.456   5.520  -9.752  1.00  0.00    -0.480 OA
ATOM     55  H   UNL     1      29.427   5.440  -9.477  1.00  0.00     0.296 HD
ENDBRANCH  52  54
ENDBRANCH  50  52
ENDBRANCH  47  50
ENDBRANCH  45  46
BRANCH  45  56
ATOM     56  CB  ARG A   5      25.864   9.605  -6.800  1.00  0.00     0.037 C 
BRANCH  56  57
ATOM     57  CG  ARG A   5      25.165  10.858  -6.271  1.00  0.00     0.024 C 
BRANCH  57  58
ATOM     58  CD  ARG A   5      25.839  11.390  -5.015  1.00  0.00     0.116 C 
BRANCH  58  59
ATOM     59  NE  ARG A   5      25.378  10.686  -3.821  1.00  0.00    -0.357 N 
ATOM     60  CZ  ARG A   5      25.468  11.282  -2.527  1.00  0.00     0.185 C 
ATOM     61  NH2 ARG A   5      26.105  12.547  -2.352  1.00  0.00    -0.370 N 
ATOM     62  H   UNL     1      24.897   9.762  -3.912  1.00  0.00     0.163 HD
ATOM     63  H   UNL     1      26.694  12.984  -3.094  1.00  0.00     0.159 HD
ATOM     64  H   UNL     1      26.075  13.026  -1.425  1.00  0.00     0.159 HD
BRANCH  60  65
ATOM     65  NH1 ARG A   5      24.954  10.672  -1.507  1.00  0.00    -0.270 NA
ATOM     66  H   UNL     1      24.993  11.078  -0.546  1.00  0.00     0.191 HD
ENDBRANCH  60  65
ENDBRANCH  58  59
ENDBRANCH  57  58
ENDBRANCH  56  57
ENDBRANCH  45  56
ENDBRANCH  42  45
ENDBRANCH  40  41
BRANCH  40  67
ATOM     67  CB  LEU A   4      20.657   7.999  -9.275  1.00  0.00     0.038 C 
BRANCH  67  68
ATOM     68  CG  LEU A   4      21.450   6.770  -9.771  1.00  0.00    -0.015 C 
ATOM     69  CD1 LEU A   4      21.763   5.779  -8.640  1.00  0.00     0.007 C 
ATOM     70  CD2 LEU A   4      20.659   6.065 -10.877  1.00  0.00     0.007 C 
ENDBRANCH  67  68
ENDBRANCH  40  67
ENDBRANCH   3  40
TORSDOF 29
