REMARK SMILES C[C@H](NC(=O)[C@H](Cc1ccccc1)NC(=O)[C@@H](N)CO)C(=O)N[C@@H](Cc1ccc(O)cc1)C(=O)N[C@@H](CCCNC(=N)N)C(=O)N[C@@H](CC(N)=O)C(=O)O
REMARK SMILES IDX 21 1 22 2 23 3 2 5 1 6 3 7 4 8 5 9 6 11 14 12 15 13 16 14
REMARK SMILES IDX 17 16 18 17 19 20 20 21 7 23 8 24 9 25 13 26 10 27 12 28
REMARK SMILES IDX 11 29 24 30 33 31 35 32 34 33 36 35 44 36 46 37 45 38 47 40
REMARK SMILES IDX 52 41 53 42 54 43 48 45 49 46 50 47 51 48 37 51 38 52 39 53
REMARK SMILES IDX 40 54 41 55 43 56 42 60 25 62 26 63 27 64 32 65 28 66 31 67
REMARK SMILES IDX 29 68 30 69
REMARK H PARENT 23 4 3 10 14 15 18 18 18 19 20 22 35 34 46 39 54 44 50 49
REMARK H PARENT 50 50 40 57 43 58 43 59 42 61 30 70
ROOT
ATOM      1  C   ALA A   3      20.048  10.098  -6.464  1.00  0.00     0.242 C 
ATOM      2  O   ALA A   3      20.176   9.198  -5.586  1.00  0.00    -0.273 OA
ATOM      3  N   TYR A   4      20.562   9.912  -7.775  1.00  0.00    -0.342 N 
ATOM      4  H   UNL     1      20.393  10.646  -8.501  1.00  0.00     0.164 HD
ENDROOT
BRANCH   1   5
ATOM      5  CA  ALA A   3      19.342  11.372  -6.149  1.00  0.00     0.168 C 
ATOM      6  CB  ALA A   3      20.180  12.245  -5.224  1.00  0.00     0.041 C 
BRANCH   5   7
ATOM      7  N   ALA A   3      18.096  11.058  -5.498  1.00  0.00    -0.343 N 
ATOM      8  C   PHE A   2      16.888  11.752  -5.774  1.00  0.00     0.243 C 
ATOM      9  O   PHE A   2      16.900  12.792  -6.488  1.00  0.00    -0.273 OA
ATOM     10  H   UNL     1      18.189  10.556  -4.588  1.00  0.00     0.164 HD
BRANCH   8  11
ATOM     11  CA  PHE A   2      15.653  11.314  -5.060  1.00  0.00     0.175 C 
BRANCH  11  12
ATOM     12  N   PHE A   2      14.454  11.739  -5.769  1.00  0.00    -0.343 N 
ATOM     13  C   SER A   1      13.914  13.049  -5.637  1.00  0.00     0.239 C 
ATOM     14  O   SER A   1      14.447  13.869  -4.840  1.00  0.00    -0.273 OA
ATOM     15  H   UNL     1      13.863  10.998  -6.206  1.00  0.00     0.164 HD
BRANCH  13  16
ATOM     16  CA  SER A   1      12.655  13.409  -6.387  1.00  0.00     0.167 C 
BRANCH  16  17
ATOM     17  N   SER A   1      12.467  14.861  -6.384  1.00  0.00    -0.318 NA
ATOM     18  H   UNL     1      12.302  15.171  -5.399  1.00  0.00     0.119 HD
ATOM     19  H   UNL     1      11.582  15.088  -6.894  1.00  0.00     0.119 HD
ENDBRANCH  16  17
BRANCH  16  20
ATOM     20  CB  SER A   1      12.698  12.894  -7.844  1.00  0.00     0.184 C 
BRANCH  20  21
ATOM     21  OG  SER A   1      11.440  13.041  -8.440  1.00  0.00    -0.394 OA
ATOM     22  H   UNL     1      11.550  12.778  -9.392  1.00  0.00     0.210 HD
ENDBRANCH  20  21
ENDBRANCH  16  20
ENDBRANCH  13  16
ENDBRANCH  11  12
BRANCH  11  23
ATOM     23  CB  PHE A   2      15.619   9.776  -4.891  1.00  0.00     0.070 C 
BRANCH  23  24
ATOM     24  CG  PHE A   2      14.450   9.289  -4.088  1.00  0.00    -0.045 A 
ATOM     25  CD1 PHE A   2      13.906  10.047  -3.033  1.00  0.00     0.004 A 
ATOM     26  CD2 PHE A   2      13.972   7.990  -4.310  1.00  0.00     0.004 A 
ATOM     27  CE1 PHE A   2      12.870   9.536  -2.261  1.00  0.00     0.000 A 
ATOM     28  CE2 PHE A   2      12.941   7.478  -3.522  1.00  0.00     0.000 A 
ATOM     29  CZ  PHE A   2      12.387   8.253  -2.503  1.00  0.00     0.000 A 
ENDBRANCH  23  24
ENDBRANCH  11  23
ENDBRANCH   8  11
ENDBRANCH   5   7
ENDBRANCH   1   5
BRANCH   3  30
ATOM     30  CA  TYR A   4      21.348   8.748  -8.139  1.00  0.00     0.175 C 
BRANCH  30  31
ATOM     31  C   TYR A   4      22.712   9.205  -8.523  1.00  0.00     0.243 C 
ATOM     32  N   ARG A   5      23.822   8.714  -7.786  1.00  0.00    -0.343 N 
ATOM     33  O   TYR A   4      22.874  10.026  -9.467  1.00  0.00    -0.273 OA
ATOM     34  H   UNL     1      23.669   8.014  -7.025  1.00  0.00     0.164 HD
BRANCH  32  35
ATOM     35  CA  ARG A   5      25.185   9.120  -8.073  1.00  0.00     0.171 C 
BRANCH  35  36
ATOM     36  C   ARG A   5      25.900   7.967  -8.686  1.00  0.00     0.243 C 
ATOM     37  N   ASN A   6      25.913   7.864 -10.103  1.00  0.00    -0.341 N 
ATOM     38  O   ARG A   5      26.448   7.086  -7.970  1.00  0.00    -0.273 OA
ATOM     39  H   UNL     1      25.489   8.647 -10.651  1.00  0.00     0.164 HD
BRANCH  37  40
ATOM     40  CA  ASN A   6      26.543   6.751 -10.805  1.00  0.00     0.201 C 
BRANCH  40  41
ATOM     41  C   ASN A   6      27.993   6.642 -10.415  1.00  0.00     0.326 C 
ATOM     42  O   ASN A   6      28.795   7.578 -10.676  1.00  0.00    -0.250 OA
BRANCH  41  43
ATOM     43  OXT ASN A   6      28.450   5.499  -9.766  1.00  0.00    -0.480 OA
ATOM     44  H   UNL     1      29.422   5.409  -9.496  1.00  0.00     0.296 HD
ENDBRANCH  41  43
ENDBRANCH  40  41
BRANCH  40  45
ATOM     45  CB  ASN A   6      26.429   6.949 -12.325  1.00  0.00     0.136 C 
BRANCH  45  46
ATOM     46  CG  ASN A   6      25.017   7.186 -12.776  1.00  0.00     0.220 C 
ATOM     47  ND2 ASN A   6      24.760   8.093 -13.838  1.00  0.00    -0.370 N 
ATOM     48  OD1 ASN A   6      24.061   6.570 -12.241  1.00  0.00    -0.275 OA
ATOM     49  H   UNL     1      25.539   8.599 -14.314  1.00  0.00     0.159 HD
ATOM     50  H   UNL     1      23.780   8.261 -14.159  1.00  0.00     0.159 HD
ENDBRANCH  45  46
ENDBRANCH  40  45
ENDBRANCH  37  40
ENDBRANCH  35  36
BRANCH  35  51
ATOM     51  CB  ARG A   5      25.862   9.604  -6.796  1.00  0.00     0.037 C 
BRANCH  51  52
ATOM     52  CG  ARG A   5      25.167  10.860  -6.272  1.00  0.00     0.024 C 
BRANCH  52  53
ATOM     53  CD  ARG A   5      25.841  11.391  -5.015  1.00  0.00     0.116 C 
BRANCH  53  54
ATOM     54  NE  ARG A   5      25.378  10.684  -3.823  1.00  0.00    -0.357 N 
ATOM     55  CZ  ARG A   5      25.468  11.279  -2.527  1.00  0.00     0.185 C 
ATOM     56  NH2 ARG A   5      26.106  12.541  -2.350  1.00  0.00    -0.370 N 
ATOM     57  H   UNL     1      24.904   9.757  -3.922  1.00  0.00     0.163 HD
ATOM     58  H   UNL     1      26.693  12.983  -3.090  1.00  0.00     0.159 HD
ATOM     59  H   UNL     1      26.084  13.006  -1.415  1.00  0.00     0.159 HD
BRANCH  55  60
ATOM     60  NH1 ARG A   5      24.959  10.678  -1.500  1.00  0.00    -0.270 NA
ATOM     61  H   UNL     1      24.478   9.755  -1.583  1.00  0.00     0.191 HD
ENDBRANCH  55  60
ENDBRANCH  53  54
ENDBRANCH  52  53
ENDBRANCH  51  52
ENDBRANCH  35  51
ENDBRANCH  32  35
ENDBRANCH  30  31
BRANCH  30  62
ATOM     62  CB  TYR A   4      20.658   7.988  -9.275  1.00  0.00     0.070 C 
BRANCH  62  63
ATOM     63  CG  TYR A   4      21.387   6.752  -9.774  1.00  0.00    -0.045 A 
ATOM     64  CD1 TYR A   4      21.110   6.305 -11.079  1.00  0.00     0.007 A 
ATOM     65  CD2 TYR A   4      22.165   5.928  -8.932  1.00  0.00     0.007 A 
ATOM     66  CE1 TYR A   4      21.621   5.089 -11.542  1.00  0.00     0.046 A 
ATOM     67  CE2 TYR A   4      22.702   4.729  -9.410  1.00  0.00     0.046 A 
ATOM     68  CZ  TYR A   4      22.429   4.305 -10.716  1.00  0.00     0.115 A 
BRANCH  68  69
ATOM     69  OH  TYR A   4      22.951   3.107 -11.198  1.00  0.00    -0.508 OA
ATOM     70  H   UNL     1      23.541   2.517 -10.623  1.00  0.00     0.293 HD
ENDBRANCH  68  69
ENDBRANCH  62  63
ENDBRANCH  30  62
ENDBRANCH   3  30
TORSDOF 27
