REMARK SMILES CC(C)C[C@H](NC(=O)[C@H](CCC(N)=O)NC(=O)[C@H](Cc1ccccc1)NC(=O)[C@@H](N)CO)C(=O)N[C@@H](CCCNC(=N)N)C(=O)N[C@@H](C)C(=O)O
REMARK SMILES IDX 7 1 8 2 6 3 9 5 15 6 16 7 17 8 18 10 26 11 27 12 28 13 29 15
REMARK SMILES IDX 30 16 31 19 32 20 19 22 20 23 21 24 25 25 22 26 24 27 23 28
REMARK SMILES IDX 10 29 11 30 12 31 13 32 14 33 5 36 33 37 35 38 34 39 36 41
REMARK SMILES IDX 44 42 46 43 45 44 47 46 48 47 49 48 50 49 51 50 37 52 38 53
REMARK SMILES IDX 39 54 40 55 41 56 43 57 42 61 4 63 2 64 1 65 3 66
REMARK H PARENT 6 4 15 9 26 14 30 17 30 18 32 21 13 34 13 35 35 40 46 45 51 51
REMARK H PARENT 40 58 43 59 43 60 42 62
ROOT
ATOM      1  C   GLN A   3       0.883   0.297  -0.067  1.00  0.00     0.243 C 
ATOM      2  O   GLN A   3       0.971  -0.595  -0.955  1.00  0.00    -0.273 OA
ATOM      3  N   LEU A   4      -0.165   0.233   0.913  1.00  0.00    -0.343 N 
ATOM      4  H   UNL     1      -0.340   1.092   1.480  1.00  0.00     0.164 HD
ENDROOT
BRANCH   1   5
ATOM      5  CA  GLN A   3       1.837   1.470  -0.071  1.00  0.00     0.171 C 
BRANCH   5   6
ATOM      6  N   GLN A   3       3.159   1.091  -0.593  1.00  0.00    -0.342 N 
ATOM      7  C   PHE A   2       4.335   1.895  -0.371  1.00  0.00     0.243 C 
ATOM      8  O   PHE A   2       4.229   3.013   0.204  1.00  0.00    -0.273 OA
ATOM      9  H   UNL     1       3.253   0.203  -1.141  1.00  0.00     0.164 HD
BRANCH   7  10
ATOM     10  CA  PHE A   2       5.718   1.418  -0.754  1.00  0.00     0.175 C 
BRANCH  10  11
ATOM     11  N   PHE A   2       6.287   0.654   0.358  1.00  0.00    -0.343 N 
ATOM     12  C   SER A   1       7.527   1.010   0.997  1.00  0.00     0.239 C 
ATOM     13  O   SER A   1       8.180   2.016   0.595  1.00  0.00    -0.273 OA
ATOM     14  H   UNL     1       5.778  -0.206   0.665  1.00  0.00     0.164 HD
BRANCH  12  15
ATOM     15  CA  SER A   1       8.068   0.205   2.156  1.00  0.00     0.167 C 
BRANCH  15  16
ATOM     16  N   SER A   1       7.114   0.174   3.269  1.00  0.00    -0.318 NA
ATOM     17  H   UNL     1       6.218  -0.270   2.958  1.00  0.00     0.119 HD
ATOM     18  H   UNL     1       6.891   1.158   3.546  1.00  0.00     0.119 HD
ENDBRANCH  15  16
BRANCH  15  19
ATOM     19  CB  SER A   1       8.431  -1.221   1.727  1.00  0.00     0.184 C 
BRANCH  19  20
ATOM     20  OG  SER A   1       9.432  -1.183   0.746  1.00  0.00    -0.394 OA
ATOM     21  H   UNL     1       9.651  -2.129   0.539  1.00  0.00     0.210 HD
ENDBRANCH  19  20
ENDBRANCH  15  19
ENDBRANCH  12  15
ENDBRANCH  10  11
BRANCH  10  22
ATOM     22  CB  PHE A   2       5.755   0.579  -2.050  1.00  0.00     0.070 C 
BRANCH  22  23
ATOM     23  CG  PHE A   2       7.178   0.295  -2.471  1.00  0.00    -0.045 A 
ATOM     24  CD1 PHE A   2       7.779  -0.938  -2.160  1.00  0.00     0.004 A 
ATOM     25  CD2 PHE A   2       7.931   1.275  -3.138  1.00  0.00     0.004 A 
ATOM     26  CE1 PHE A   2       9.105  -1.188  -2.526  1.00  0.00     0.000 A 
ATOM     27  CE2 PHE A   2       9.261   1.027  -3.490  1.00  0.00     0.000 A 
ATOM     28  CZ  PHE A   2       9.848  -0.206  -3.187  1.00  0.00     0.000 A 
ENDBRANCH  22  23
ENDBRANCH  10  22
ENDBRANCH   7  10
ENDBRANCH   5   6
BRANCH   5  29
ATOM     29  CB  GLN A   3       1.236   2.674  -0.834  1.00  0.00     0.045 C 
BRANCH  29  30
ATOM     30  CG  GLN A   3       0.920   2.422  -2.322  1.00  0.00     0.102 C 
BRANCH  30  31
ATOM     31  CD  GLN A   3       2.157   2.275  -3.160  1.00  0.00     0.217 C 
ATOM     32  NE2 GLN A   3       2.405   1.072  -3.894  1.00  0.00    -0.370 N 
ATOM     33  OE1 GLN A   3       2.976   3.231  -3.234  1.00  0.00    -0.275 OA
ATOM     34  H   UNL     1       1.752   0.258  -3.825  1.00  0.00     0.159 HD
ATOM     35  H   UNL     1       3.254   0.993  -4.496  1.00  0.00     0.159 HD
ENDBRANCH  30  31
ENDBRANCH  29  30
ENDBRANCH   5  29
ENDBRANCH   1   5
BRANCH   3  36
ATOM     36  CA  LEU A   4      -1.147  -0.861   0.940  1.00  0.00     0.171 C 
BRANCH  36  37
ATOM     37  C   LEU A   4      -2.383  -0.513   0.149  1.00  0.00     0.243 C 
ATOM     38  N   ARG A   5      -3.293  -1.555  -0.241  1.00  0.00    -0.343 N 
ATOM     39  O   LEU A   4      -2.586   0.676  -0.211  1.00  0.00    -0.273 OA
ATOM     40  H   UNL     1      -2.895  -2.520  -0.247  1.00  0.00     0.164 HD
BRANCH  38  41
ATOM     41  CA  ARG A   5      -4.758  -1.427  -0.190  1.00  0.00     0.171 C 
BRANCH  41  42
ATOM     42  C   ARG A   5      -5.400  -2.703  -0.680  1.00  0.00     0.243 C 
ATOM     43  N   ALA A   6      -6.559  -3.227  -0.013  1.00  0.00    -0.341 N 
ATOM     44  O   ARG A   5      -4.961  -3.265  -1.721  1.00  0.00    -0.273 OA
ATOM     45  H   UNL     1      -6.912  -2.730   0.833  1.00  0.00     0.164 HD
BRANCH  43  46
ATOM     46  CA  ALA A   6      -7.247  -4.436  -0.481  1.00  0.00     0.189 C 
ATOM     47  CB  ALA A   6      -8.251  -4.923   0.571  1.00  0.00     0.043 C 
BRANCH  46  48
ATOM     48  C   ALA A   6      -7.956  -4.161  -1.778  1.00  0.00     0.325 C 
ATOM     49  O   ALA A   6      -8.625  -3.104  -1.928  1.00  0.00    -0.250 OA
BRANCH  48  50
ATOM     50  OXT ALA A   6      -7.895  -5.098  -2.809  1.00  0.00    -0.480 OA
ATOM     51  H   UNL     1      -8.370  -4.931  -3.688  1.00  0.00     0.296 HD
ENDBRANCH  48  50
ENDBRANCH  46  48
ENDBRANCH  43  46
ENDBRANCH  41  42
BRANCH  41  52
ATOM     52  CB  ARG A   5      -5.286  -0.229  -1.028  1.00  0.00     0.037 C 
BRANCH  52  53
ATOM     53  CG  ARG A   5      -5.752   0.923  -0.125  1.00  0.00     0.024 C 
BRANCH  53  54
ATOM     54  CD  ARG A   5      -6.184   2.145  -0.941  1.00  0.00     0.116 C 
BRANCH  54  55
ATOM     55  NE  ARG A   5      -6.602   3.219  -0.046  1.00  0.00    -0.357 N 
ATOM     56  CZ  ARG A   5      -7.843   3.196   0.677  1.00  0.00     0.185 C 
ATOM     57  NH2 ARG A   5      -8.108   4.209   1.648  1.00  0.00    -0.370 N 
ATOM     58  H   UNL     1      -5.959   4.040   0.081  1.00  0.00     0.163 HD
ATOM     59  H   UNL     1      -9.002   4.213   2.195  1.00  0.00     0.159 HD
ATOM     60  H   UNL     1      -7.397   4.945   1.849  1.00  0.00     0.159 HD
BRANCH  56  61
ATOM     61  NH1 ARG A   5      -8.717   2.268   0.451  1.00  0.00    -0.270 NA
ATOM     62  H   UNL     1      -9.627   2.224   0.968  1.00  0.00     0.191 HD
ENDBRANCH  56  61
ENDBRANCH  54  55
ENDBRANCH  53  54
ENDBRANCH  52  53
ENDBRANCH  41  52
ENDBRANCH  38  41
ENDBRANCH  36  37
BRANCH  36  63
ATOM     63  CB  LEU A   4      -1.476  -1.313   2.385  1.00  0.00     0.038 C 
BRANCH  63  64
ATOM     64  CG  LEU A   4      -1.841  -0.218   3.422  1.00  0.00    -0.015 C 
ATOM     65  CD1 LEU A   4      -2.055  -0.870   4.795  1.00  0.00     0.007 C 
ATOM     66  CD2 LEU A   4      -3.094   0.580   3.039  1.00  0.00     0.007 C 
ENDBRANCH  63  64
ENDBRANCH  36  63
ENDBRANCH   3  36
TORSDOF 27
