REMARK SMILES CC(C)C[C@H](NC(=O)[C@H](CCCNC(=N)N)NC(=O)[C@H](CC(C)C)NC(=O)[C@@H](N)CO)C(=O)N[C@@H](CCCNC(=N)N)C(=O)N[C@@H](CC(N)=O)C(=O)O
REMARK SMILES IDX 7 1 8 2 6 3 9 5 17 6 18 7 19 8 20 10 25 11 26 12 27 13 28 15
REMARK SMILES IDX 29 16 30 19 31 20 21 22 22 23 23 24 24 25 10 26 11 27 12 28
REMARK SMILES IDX 13 29 14 30 16 31 15 35 5 37 32 38 34 39 33 40 35 42 43 43
REMARK SMILES IDX 45 44 44 45 46 47 51 48 52 49 53 50 47 52 48 53 49 54 50 55
REMARK SMILES IDX 36 58 37 59 38 60 39 61 40 62 42 63 41 67 4 69 2 70 1 71
REMARK SMILES IDX 3 72
REMARK H PARENT 6 4 17 9 25 14 29 17 29 18 31 21 13 32 16 33 16 34 15 36 34 41
REMARK H PARENT 45 46 53 51 49 56 49 57 39 64 42 65 42 66 41 68
ROOT
ATOM      1  C   ARG A   3      20.034  10.080  -6.467  1.00  0.00     0.243 C 
ATOM      2  O   ARG A   3      20.151   9.159  -5.613  1.00  0.00    -0.273 OA
ATOM      3  N   LEU A   4      20.564   9.922  -7.773  1.00  0.00    -0.343 N 
ATOM      4  H   UNL     1      20.404  10.666  -8.491  1.00  0.00     0.164 HD
ENDROOT
BRANCH   1   5
ATOM      5  CA  ARG A   3      19.329  11.351  -6.131  1.00  0.00     0.171 C 
BRANCH   5   6
ATOM      6  N   ARG A   3      18.083  11.039  -5.477  1.00  0.00    -0.343 N 
ATOM      7  C   LEU A   2      16.883  11.748  -5.738  1.00  0.00     0.243 C 
ATOM      8  O   LEU A   2      16.902  12.786  -6.458  1.00  0.00    -0.273 OA
ATOM      9  H   UNL     1      18.159  10.498  -4.590  1.00  0.00     0.164 HD
BRANCH   7  10
ATOM     10  CA  LEU A   2      15.630  11.303  -5.044  1.00  0.00     0.171 C 
BRANCH  10  11
ATOM     11  N   LEU A   2      14.481  11.752  -5.802  1.00  0.00    -0.343 N 
ATOM     12  C   SER A   1      13.909  13.045  -5.642  1.00  0.00     0.239 C 
ATOM     13  O   SER A   1      14.428  13.858  -4.827  1.00  0.00    -0.273 OA
ATOM     14  H   UNL     1      14.128  11.091  -6.520  1.00  0.00     0.164 HD
BRANCH  12  15
ATOM     15  CA  SER A   1      12.647  13.404  -6.390  1.00  0.00     0.167 C 
BRANCH  15  16
ATOM     16  N   SER A   1      12.468  14.858  -6.392  1.00  0.00    -0.318 NA
ATOM     17  H   UNL     1      12.314  15.175  -5.407  1.00  0.00     0.119 HD
ATOM     18  H   UNL     1      11.580  15.089  -6.894  1.00  0.00     0.119 HD
ENDBRANCH  15  16
BRANCH  15  19
ATOM     19  CB  SER A   1      12.666  12.878  -7.846  1.00  0.00     0.184 C 
BRANCH  19  20
ATOM     20  OG  SER A   1      11.422  13.087  -8.448  1.00  0.00    -0.394 OA
ATOM     21  H   UNL     1      11.530  12.852  -9.407  1.00  0.00     0.210 HD
ENDBRANCH  19  20
ENDBRANCH  15  19
ENDBRANCH  12  15
ENDBRANCH  10  11
BRANCH  10  22
ATOM     22  CB  LEU A   2      15.566   9.757  -4.911  1.00  0.00     0.038 C 
BRANCH  22  23
ATOM     23  CG  LEU A   2      14.407   9.217  -4.047  1.00  0.00    -0.015 C 
ATOM     24  CD1 LEU A   2      13.024   9.340  -4.703  1.00  0.00     0.007 C 
ATOM     25  CD2 LEU A   2      14.392   9.801  -2.627  1.00  0.00     0.007 C 
ENDBRANCH  22  23
ENDBRANCH  10  22
ENDBRANCH   7  10
ENDBRANCH   5   6
BRANCH   5  26
ATOM     26  CB  ARG A   3      20.186  12.250  -5.235  1.00  0.00     0.037 C 
BRANCH  26  27
ATOM     27  CG  ARG A   3      20.427  11.704  -3.808  1.00  0.00     0.024 C 
BRANCH  27  28
ATOM     28  CD  ARG A   3      21.823  12.070  -3.304  1.00  0.00     0.116 C 
BRANCH  28  29
ATOM     29  NE  ARG A   3      22.020  13.520  -3.277  1.00  0.00    -0.357 N 
ATOM     30  CZ  ARG A   3      21.426  14.374  -2.289  1.00  0.00     0.185 C 
ATOM     31  NH2 ARG A   3      21.646  15.785  -2.351  1.00  0.00    -0.370 N 
ATOM     32  H   UNL     1      22.668  13.942  -3.979  1.00  0.00     0.163 HD
ATOM     33  H   UNL     1      21.227  16.426  -1.641  1.00  0.00     0.159 HD
ATOM     34  H   UNL     1      22.229  16.195  -3.114  1.00  0.00     0.159 HD
BRANCH  30  35
ATOM     35  NH1 ARG A   3      20.702  13.872  -1.338  1.00  0.00    -0.270 NA
ATOM     36  H   UNL     1      20.262  14.473  -0.606  1.00  0.00     0.191 HD
ENDBRANCH  30  35
ENDBRANCH  28  29
ENDBRANCH  27  28
ENDBRANCH  26  27
ENDBRANCH   5  26
ENDBRANCH   1   5
BRANCH   3  37
ATOM     37  CA  LEU A   4      21.348   8.761  -8.141  1.00  0.00     0.171 C 
BRANCH  37  38
ATOM     38  C   LEU A   4      22.713   9.216  -8.521  1.00  0.00     0.243 C 
ATOM     39  N   ARG A   5      23.822   8.721  -7.786  1.00  0.00    -0.343 N 
ATOM     40  O   LEU A   4      22.878  10.033  -9.469  1.00  0.00    -0.273 OA
ATOM     41  H   UNL     1      23.667   8.031  -7.015  1.00  0.00     0.164 HD
BRANCH  39  42
ATOM     42  CA  ARG A   5      25.186   9.122  -8.073  1.00  0.00     0.171 C 
BRANCH  42  43
ATOM     43  C   ARG A   5      25.900   7.968  -8.685  1.00  0.00     0.243 C 
ATOM     44  N   ASN A   6      25.913   7.864 -10.102  1.00  0.00    -0.341 N 
ATOM     45  O   ARG A   5      26.447   7.087  -7.969  1.00  0.00    -0.273 OA
ATOM     46  H   UNL     1      25.488   8.647 -10.651  1.00  0.00     0.164 HD
BRANCH  44  47
ATOM     47  CA  ASN A   6      26.542   6.751 -10.804  1.00  0.00     0.201 C 
BRANCH  47  48
ATOM     48  C   ASN A   6      27.993   6.642 -10.416  1.00  0.00     0.326 C 
ATOM     49  O   ASN A   6      28.794   7.579 -10.677  1.00  0.00    -0.250 OA
BRANCH  48  50
ATOM     50  OXT ASN A   6      28.451   5.499  -9.768  1.00  0.00    -0.480 OA
ATOM     51  H   UNL     1      29.424   5.409  -9.500  1.00  0.00     0.296 HD
ENDBRANCH  48  50
ENDBRANCH  47  48
BRANCH  47  52
ATOM     52  CB  ASN A   6      26.424   6.947 -12.323  1.00  0.00     0.136 C 
BRANCH  52  53
ATOM     53  CG  ASN A   6      25.010   7.181 -12.773  1.00  0.00     0.220 C 
ATOM     54  ND2 ASN A   6      24.753   8.090 -13.833  1.00  0.00    -0.370 N 
ATOM     55  OD1 ASN A   6      24.053   6.558 -12.243  1.00  0.00    -0.275 OA
ATOM     56  H   UNL     1      25.533   8.600 -14.306  1.00  0.00     0.159 HD
ATOM     57  H   UNL     1      23.775   8.258 -14.156  1.00  0.00     0.159 HD
ENDBRANCH  52  53
ENDBRANCH  47  52
ENDBRANCH  44  47
ENDBRANCH  42  43
BRANCH  42  58
ATOM     58  CB  ARG A   5      25.862   9.605  -6.795  1.00  0.00     0.037 C 
BRANCH  58  59
ATOM     59  CG  ARG A   5      25.164  10.859  -6.269  1.00  0.00     0.024 C 
BRANCH  59  60
ATOM     60  CD  ARG A   5      25.838  11.392  -5.013  1.00  0.00     0.116 C 
BRANCH  60  61
ATOM     61  NE  ARG A   5      25.378  10.686  -3.820  1.00  0.00    -0.357 N 
ATOM     62  CZ  ARG A   5      25.468  11.282  -2.526  1.00  0.00     0.185 C 
ATOM     63  NH2 ARG A   5      26.105  12.547  -2.351  1.00  0.00    -0.370 N 
ATOM     64  H   UNL     1      24.896   9.763  -3.912  1.00  0.00     0.163 HD
ATOM     65  H   UNL     1      26.695  12.984  -3.093  1.00  0.00     0.159 HD
ATOM     66  H   UNL     1      26.075  13.027  -1.424  1.00  0.00     0.159 HD
BRANCH  62  67
ATOM     67  NH1 ARG A   5      24.954  10.672  -1.507  1.00  0.00    -0.270 NA
ATOM     68  H   UNL     1      24.993  11.078  -0.545  1.00  0.00     0.191 HD
ENDBRANCH  62  67
ENDBRANCH  60  61
ENDBRANCH  59  60
ENDBRANCH  58  59
ENDBRANCH  42  58
ENDBRANCH  39  42
ENDBRANCH  37  38
BRANCH  37  69
ATOM     69  CB  LEU A   4      20.655   8.000  -9.273  1.00  0.00     0.038 C 
BRANCH  69  70
ATOM     70  CG  LEU A   4      21.448   6.771  -9.769  1.00  0.00    -0.015 C 
ATOM     71  CD1 LEU A   4      21.762   5.779  -8.639  1.00  0.00     0.007 C 
ATOM     72  CD2 LEU A   4      20.661   6.067 -10.878  1.00  0.00     0.007 C 
ENDBRANCH  69  70
ENDBRANCH  37  69
ENDBRANCH   3  37
TORSDOF 31
