REMARK SMILES CC(C)C[C@H](NC(=O)[C@H](Cc1ccccc1)NC(=O)[C@H](C)N)C(=O)N[C@@H](CCCCN)C(=O)N[C@@H](CCCNC(=N)N)C(=O)N[C@@H](CC(N)=O)C(=O)O
REMARK SMILES IDX 26 1 25 2 23 3 24 4 5 6 6 7 7 8 8 9 9 11 17 12 18 13 19 14
REMARK SMILES IDX 20 16 21 17 22 18 10 21 11 22 12 23 16 24 13 25 15 26 14 27
REMARK SMILES IDX 4 28 2 29 1 30 3 31 32 32 34 33 33 34 35 36 43 37 45 38
REMARK SMILES IDX 44 39 46 41 51 42 52 43 53 44 47 46 48 47 49 48 50 49 36 52
REMARK SMILES IDX 37 53 38 54 39 55 40 56 42 57 41 61 27 63 28 64 29 65 30 66
REMARK SMILES IDX 31 67
REMARK H PARENT 25 5 6 10 17 15 22 19 22 20 34 35 45 40 53 45 49 50 49 51
REMARK H PARENT 39 58 42 59 42 60 41 62 31 68 31 69
ROOT
ATOM      1  CA  LYS A   4      21.349   8.761  -8.150  1.00  0.00     0.171 C 
ENDROOT
BRANCH   1   2
ATOM      2  N   LYS A   4      20.567   9.924  -7.784  1.00  0.00    -0.343 N 
ATOM      3  C   LEU A   3      20.051  10.088  -6.476  1.00  0.00     0.243 C 
ATOM      4  O   LEU A   3      20.161   9.162  -5.624  1.00  0.00    -0.273 OA
ATOM      5  H   UNL     1      20.405  10.666  -8.504  1.00  0.00     0.164 HD
BRANCH   3   6
ATOM      6  CA  LEU A   3      19.339  11.356  -6.144  1.00  0.00     0.171 C 
BRANCH   6   7
ATOM      7  N   LEU A   3      18.082  11.022  -5.535  1.00  0.00    -0.343 N 
ATOM      8  C   PHE A   2      16.888  11.747  -5.776  1.00  0.00     0.243 C 
ATOM      9  O   PHE A   2      16.909  12.798  -6.474  1.00  0.00    -0.273 OA
ATOM     10  H   UNL     1      18.153  10.388  -4.714  1.00  0.00     0.164 HD
BRANCH   8  11
ATOM     11  CA  PHE A   2      15.648  11.316  -5.066  1.00  0.00     0.175 C 
BRANCH  11  12
ATOM     12  N   PHE A   2      14.465  11.750  -5.794  1.00  0.00    -0.343 N 
ATOM     13  C   ALA A   1      13.906  13.049  -5.629  1.00  0.00     0.237 C 
ATOM     14  O   ALA A   1      14.431  13.861  -4.818  1.00  0.00    -0.273 OA
ATOM     15  H   UNL     1      14.013  11.069  -6.443  1.00  0.00     0.164 HD
BRANCH  13  16
ATOM     16  CA  ALA A   1      12.657  13.423  -6.382  1.00  0.00     0.138 C 
ATOM     17  CB  ALA A   1      12.676  12.885  -7.825  1.00  0.00     0.035 C 
BRANCH  16  18
ATOM     18  N   ALA A   1      12.490  14.876  -6.383  1.00  0.00    -0.320 NA
ATOM     19  H   UNL     1      13.214  15.308  -7.004  1.00  0.00     0.119 HD
ATOM     20  H   UNL     1      11.553  15.109  -6.785  1.00  0.00     0.119 HD
ENDBRANCH  16  18
ENDBRANCH  13  16
ENDBRANCH  11  12
BRANCH  11  21
ATOM     21  CB  PHE A   2      15.600   9.777  -4.892  1.00  0.00     0.070 C 
BRANCH  21  22
ATOM     22  CG  PHE A   2      14.430   9.296  -4.098  1.00  0.00    -0.045 A 
ATOM     23  CD1 PHE A   2      13.896  10.050  -3.036  1.00  0.00     0.004 A 
ATOM     24  CD2 PHE A   2      13.962   7.993  -4.312  1.00  0.00     0.004 A 
ATOM     25  CE1 PHE A   2      12.867   9.536  -2.259  1.00  0.00     0.000 A 
ATOM     26  CE2 PHE A   2      12.938   7.477  -3.519  1.00  0.00     0.000 A 
ATOM     27  CZ  PHE A   2      12.386   8.252  -2.499  1.00  0.00     0.000 A 
ENDBRANCH  21  22
ENDBRANCH  11  21
ENDBRANCH   8  11
ENDBRANCH   6   7
BRANCH   6  28
ATOM     28  CB  LEU A   3      20.164  12.254  -5.214  1.00  0.00     0.038 C 
BRANCH  28  29
ATOM     29  CG  LEU A   3      20.417  11.680  -3.790  1.00  0.00    -0.015 C 
ATOM     30  CD1 LEU A   3      21.819  12.066  -3.316  1.00  0.00     0.007 C 
ATOM     31  CD2 LEU A   3      19.370  12.170  -2.779  1.00  0.00     0.007 C 
ENDBRANCH  28  29
ENDBRANCH   6  28
ENDBRANCH   3   6
ENDBRANCH   1   2
BRANCH   1  32
ATOM     32  C   LYS A   4      22.715   9.216  -8.525  1.00  0.00     0.243 C 
ATOM     33  N   ARG A   5      23.822   8.720  -7.787  1.00  0.00    -0.343 N 
ATOM     34  O   LYS A   4      22.881  10.034  -9.470  1.00  0.00    -0.273 OA
ATOM     35  H   UNL     1      23.665   8.027  -7.019  1.00  0.00     0.164 HD
BRANCH  33  36
ATOM     36  CA  ARG A   5      25.186   9.121  -8.072  1.00  0.00     0.171 C 
BRANCH  36  37
ATOM     37  C   ARG A   5      25.900   7.967  -8.685  1.00  0.00     0.243 C 
ATOM     38  N   ASN A   6      25.913   7.864 -10.102  1.00  0.00    -0.341 N 
ATOM     39  O   ARG A   5      26.448   7.086  -7.969  1.00  0.00    -0.273 OA
ATOM     40  H   UNL     1      25.489   8.647 -10.650  1.00  0.00     0.164 HD
BRANCH  38  41
ATOM     41  CA  ASN A   6      26.542   6.751 -10.804  1.00  0.00     0.201 C 
BRANCH  41  42
ATOM     42  C   ASN A   6      27.993   6.642 -10.416  1.00  0.00     0.326 C 
ATOM     43  O   ASN A   6      28.794   7.579 -10.677  1.00  0.00    -0.250 OA
BRANCH  42  44
ATOM     44  OXT ASN A   6      28.451   5.499  -9.768  1.00  0.00    -0.480 OA
ATOM     45  H   UNL     1      29.424   5.409  -9.499  1.00  0.00     0.296 HD
ENDBRANCH  42  44
ENDBRANCH  41  42
BRANCH  41  46
ATOM     46  CB  ASN A   6      26.425   6.947 -12.323  1.00  0.00     0.136 C 
BRANCH  46  47
ATOM     47  CG  ASN A   6      25.011   7.181 -12.773  1.00  0.00     0.220 C 
ATOM     48  ND2 ASN A   6      24.754   8.091 -13.834  1.00  0.00    -0.370 N 
ATOM     49  OD1 ASN A   6      24.053   6.558 -12.243  1.00  0.00    -0.275 OA
ATOM     50  H   UNL     1      25.533   8.600 -14.306  1.00  0.00     0.159 HD
ATOM     51  H   UNL     1      23.775   8.258 -14.157  1.00  0.00     0.159 HD
ENDBRANCH  46  47
ENDBRANCH  41  46
ENDBRANCH  38  41
ENDBRANCH  36  37
BRANCH  36  52
ATOM     52  CB  ARG A   5      25.862   9.604  -6.794  1.00  0.00     0.037 C 
BRANCH  52  53
ATOM     53  CG  ARG A   5      25.165  10.859  -6.269  1.00  0.00     0.024 C 
BRANCH  53  54
ATOM     54  CD  ARG A   5      25.839  11.391  -5.013  1.00  0.00     0.116 C 
BRANCH  54  55
ATOM     55  NE  ARG A   5      25.378  10.686  -3.820  1.00  0.00    -0.357 N 
ATOM     56  CZ  ARG A   5      25.469  11.281  -2.526  1.00  0.00     0.185 C 
ATOM     57  NH2 ARG A   5      26.107  12.546  -2.351  1.00  0.00    -0.370 N 
ATOM     58  H   UNL     1      24.895   9.763  -3.912  1.00  0.00     0.163 HD
ATOM     59  H   UNL     1      26.697  12.982  -3.093  1.00  0.00     0.159 HD
ATOM     60  H   UNL     1      26.079  13.024  -1.423  1.00  0.00     0.159 HD
BRANCH  56  61
ATOM     61  NH1 ARG A   5      24.954  10.672  -1.507  1.00  0.00    -0.270 NA
ATOM     62  H   UNL     1      24.995  11.076  -0.545  1.00  0.00     0.191 HD
ENDBRANCH  56  61
ENDBRANCH  54  55
ENDBRANCH  53  54
ENDBRANCH  52  53
ENDBRANCH  36  52
ENDBRANCH  33  36
ENDBRANCH   1  32
BRANCH   1  63
ATOM     63  CB  LYS A   4      20.659   8.006  -9.288  1.00  0.00     0.035 C 
BRANCH  63  64
ATOM     64  CG  LYS A   4      21.440   6.769  -9.763  1.00  0.00     0.004 C 
BRANCH  64  65
ATOM     65  CD  LYS A   4      21.775   5.755  -8.655  1.00  0.00     0.015 C 
BRANCH  65  66
ATOM     66  CE  LYS A   4      20.529   5.188  -7.962  1.00  0.00     0.077 C 
BRANCH  66  67
ATOM     67  NZ  LYS A   4      20.910   4.122  -7.041  1.00  0.00    -0.330 NA
ATOM     68  H   UNL     1      20.049   3.825  -6.526  1.00  0.00     0.118 HD
ATOM     69  H   UNL     1      21.217   3.296  -7.604  1.00  0.00     0.118 HD
ENDBRANCH  66  67
ENDBRANCH  65  66
ENDBRANCH  64  65
ENDBRANCH  63  64
ENDBRANCH   1  63
TORSDOF 29
