REMARK SMILES CC(C)C[C@H](NC(=O)[C@H](Cc1ccccc1)NC(=O)[C@@H](N)Cc1c[nH]cn1)C(=O)N[C@@H](CO)C(=O)N[C@@H](CCCNC(=N)N)C(=O)N[C@@H](CC(N)=O)C(=O)O
REMARK SMILES IDX 28 1 29 2 30 3 5 5 6 6 7 7 8 8 9 10 17 11 18 12 19 13 20 15
REMARK SMILES IDX 21 16 22 19 23 20 27 21 24 22 26 23 25 24 10 26 11 27 12 28
REMARK SMILES IDX 16 29 13 30 15 31 14 32 4 33 2 34 1 35 3 36 31 37 34 38
REMARK SMILES IDX 36 39 35 40 37 42 45 43 47 44 46 45 48 47 53 48 54 49 55 50
REMARK SMILES IDX 49 52 50 53 51 54 52 55 38 58 39 59 40 60 41 61 42 62 44 63
REMARK SMILES IDX 43 67 32 69 33 70
REMARK H PARENT 30 4 6 9 17 14 21 17 21 18 25 25 36 41 47 46 55 51 51 56 51 57
REMARK H PARENT 41 64 44 65 44 66 43 68 33 71
ROOT
ATOM      1  C   LEU A   3       0.651  -0.719  -1.234  1.00  0.00     0.243 C 
ATOM      2  O   LEU A   3       0.944   0.411  -0.756  1.00  0.00    -0.273 OA
ATOM      3  N   SER A   4      -0.701  -1.009  -1.624  1.00  0.00    -0.340 N 
ATOM      4  H   UNL     1      -0.981  -2.010  -1.750  1.00  0.00     0.164 HD
ENDROOT
BRANCH   1   5
ATOM      5  CA  LEU A   3       1.703  -1.792  -1.392  1.00  0.00     0.171 C 
BRANCH   5   6
ATOM      6  N   LEU A   3       2.999  -1.198  -1.756  1.00  0.00    -0.343 N 
ATOM      7  C   PHE A   2       3.840  -0.468  -0.849  1.00  0.00     0.243 C 
ATOM      8  O   PHE A   2       3.457  -0.247   0.329  1.00  0.00    -0.273 OA
ATOM      9  H   UNL     1       3.333  -1.329  -2.733  1.00  0.00     0.164 HD
BRANCH   7  10
ATOM     10  CA  PHE A   2       5.219  -0.019  -1.277  1.00  0.00     0.175 C 
BRANCH  10  11
ATOM     11  N   PHE A   2       5.323   1.443  -1.380  1.00  0.00    -0.343 N 
ATOM     12  C   HIS A   1       4.778   2.372  -0.428  1.00  0.00     0.237 C 
ATOM     13  O   HIS A   1       3.529   2.475  -0.311  1.00  0.00    -0.273 OA
ATOM     14  H   UNL     1       5.926   1.829  -2.140  1.00  0.00     0.164 HD
BRANCH  12  15
ATOM     15  CA  HIS A   1       5.669   3.231   0.445  1.00  0.00     0.147 C 
BRANCH  15  16
ATOM     16  N   HIS A   1       6.127   2.467   1.613  1.00  0.00    -0.320 NA
ATOM     17  H   UNL     1       5.286   2.125   2.134  1.00  0.00     0.119 HD
ATOM     18  H   UNL     1       6.617   3.126   2.264  1.00  0.00     0.119 HD
ENDBRANCH  15  16
BRANCH  15  19
ATOM     19  CB  HIS A   1       6.855   3.860  -0.330  1.00  0.00     0.086 C 
BRANCH  19  20
ATOM     20  CG  HIS A   1       8.077   2.984  -0.409  1.00  0.00     0.060 A 
ATOM     21  ND1 HIS A   1       8.381   2.187  -1.453  1.00  0.00    -0.242 NA
ATOM     22  CD2 HIS A   1       9.068   2.905   0.547  1.00  0.00     0.107 A 
ATOM     23  CE1 HIS A   1       9.551   1.619  -1.092  1.00  0.00     0.196 A 
ATOM     24  NE2 HIS A   1       9.995   2.038   0.110  1.00  0.00    -0.351 N 
ATOM     25  H   UNL     1      10.881   1.763   0.583  1.00  0.00     0.167 HD
ENDBRANCH  19  20
ENDBRANCH  15  19
ENDBRANCH  12  15
ENDBRANCH  10  11
BRANCH  10  26
ATOM     26  CB  PHE A   2       6.316  -0.554  -0.336  1.00  0.00     0.070 C 
BRANCH  26  27
ATOM     27  CG  PHE A   2       6.277  -2.058  -0.223  1.00  0.00    -0.045 A 
ATOM     28  CD1 PHE A   2       5.717  -2.665   0.915  1.00  0.00     0.004 A 
ATOM     29  CD2 PHE A   2       6.718  -2.860  -1.289  1.00  0.00     0.004 A 
ATOM     30  CE1 PHE A   2       5.608  -4.058   0.985  1.00  0.00     0.000 A 
ATOM     31  CE2 PHE A   2       6.600  -4.249  -1.220  1.00  0.00     0.000 A 
ATOM     32  CZ  PHE A   2       6.042  -4.847  -0.087  1.00  0.00     0.000 A 
ENDBRANCH  26  27
ENDBRANCH  10  26
ENDBRANCH   7  10
ENDBRANCH   5   6
BRANCH   5  33
ATOM     33  CB  LEU A   3       1.849  -2.817  -0.215  1.00  0.00     0.038 C 
BRANCH  33  34
ATOM     34  CG  LEU A   3       0.806  -2.754   0.952  1.00  0.00    -0.015 C 
ATOM     35  CD1 LEU A   3       0.220  -4.139   1.239  1.00  0.00     0.007 C 
ATOM     36  CD2 LEU A   3       1.441  -2.191   2.231  1.00  0.00     0.007 C 
ENDBRANCH  33  34
ENDBRANCH   5  33
ENDBRANCH   1   5
BRANCH   3  37
ATOM     37  CA  SER A   4      -1.713   0.031  -1.827  1.00  0.00     0.197 C 
BRANCH  37  38
ATOM     38  C   SER A   4      -2.469   0.289  -0.540  1.00  0.00     0.245 C 
ATOM     39  N   ARG A   5      -3.576   1.203  -0.509  1.00  0.00    -0.342 N 
ATOM     40  O   SER A   4      -2.072  -0.248   0.537  1.00  0.00    -0.273 OA
ATOM     41  H   UNL     1      -3.834   1.693  -1.386  1.00  0.00     0.164 HD
BRANCH  39  42
ATOM     42  CA  ARG A   5      -4.420   1.378   0.681  1.00  0.00     0.171 C 
BRANCH  42  43
ATOM     43  C   ARG A   5      -5.090   0.077   1.030  1.00  0.00     0.243 C 
ATOM     44  N   ASN A   6      -5.753  -0.703   0.017  1.00  0.00    -0.341 N 
ATOM     45  O   ARG A   5      -5.044  -0.340   2.217  1.00  0.00    -0.273 OA
ATOM     46  H   UNL     1      -5.895  -0.285  -0.929  1.00  0.00     0.164 HD
BRANCH  44  47
ATOM     47  CA  ASN A   6      -6.239  -2.060   0.284  1.00  0.00     0.201 C 
BRANCH  47  48
ATOM     48  C   ASN A   6      -6.311  -2.865  -0.994  1.00  0.00     0.326 C 
ATOM     49  O   ASN A   6      -5.436  -2.705  -1.887  1.00  0.00    -0.250 OA
BRANCH  48  50
ATOM     50  OXT ASN A   6      -7.285  -3.842  -1.158  1.00  0.00    -0.480 OA
ATOM     51  H   UNL     1      -7.332  -4.378  -2.011  1.00  0.00     0.296 HD
ENDBRANCH  48  50
ENDBRANCH  47  48
BRANCH  47  52
ATOM     52  CB  ASN A   6      -7.603  -1.987   0.999  1.00  0.00     0.136 C 
BRANCH  52  53
ATOM     53  CG  ASN A   6      -7.819  -3.174   1.897  1.00  0.00     0.220 C 
ATOM     54  ND2 ASN A   6      -8.701  -4.230   1.513  1.00  0.00    -0.370 N 
ATOM     55  OD1 ASN A   6      -7.198  -3.254   2.995  1.00  0.00    -0.275 OA
ATOM     56  H   UNL     1      -9.261  -4.170   0.640  1.00  0.00     0.159 HD
ATOM     57  H   UNL     1      -8.752  -5.098   2.098  1.00  0.00     0.159 HD
ENDBRANCH  52  53
ENDBRANCH  47  52
ENDBRANCH  44  47
ENDBRANCH  42  43
BRANCH  42  58
ATOM     58  CB  ARG A   5      -5.475   2.472   0.441  1.00  0.00     0.037 C 
BRANCH  58  59
ATOM     59  CG  ARG A   5      -4.852   3.879   0.430  1.00  0.00     0.024 C 
BRANCH  59  60
ATOM     60  CD  ARG A   5      -5.790   4.920  -0.190  1.00  0.00     0.116 C 
BRANCH  60  61
ATOM     61  NE  ARG A   5      -7.087   4.949   0.489  1.00  0.00    -0.357 N 
ATOM     62  CZ  ARG A   5      -7.314   5.483   1.805  1.00  0.00     0.185 C 
ATOM     63  NH2 ARG A   5      -8.598   5.335   2.408  1.00  0.00    -0.370 N 
ATOM     64  H   UNL     1      -7.905   4.560  -0.028  1.00  0.00     0.163 HD
ATOM     65  H   UNL     1      -8.779   5.681   3.380  1.00  0.00     0.159 HD
ATOM     66  H   UNL     1      -9.373   4.875   1.874  1.00  0.00     0.159 HD
BRANCH  62  67
ATOM     67  NH1 ARG A   5      -6.392   6.134   2.442  1.00  0.00    -0.270 NA
ATOM     68  H   UNL     1      -5.436   6.304   2.062  1.00  0.00     0.191 HD
ENDBRANCH  62  67
ENDBRANCH  60  61
ENDBRANCH  59  60
ENDBRANCH  58  59
ENDBRANCH  42  58
ENDBRANCH  39  42
ENDBRANCH  37  38
BRANCH  37  69
ATOM     69  CB  SER A   4      -2.652  -0.400  -2.966  1.00  0.00     0.191 C 
BRANCH  69  70
ATOM     70  OG  SER A   4      -3.268   0.712  -3.540  1.00  0.00    -0.394 OA
ATOM     71  H   UNL     1      -3.750   0.384  -4.343  1.00  0.00     0.210 HD
ENDBRANCH  69  70
ENDBRANCH  37  69
ENDBRANCH   3  37
TORSDOF 28
