REMARK SMILES CC[C@H](C)[C@H](NC(=O)[C@H](CC(C)C)NC(=O)[C@H](Cc1c[nH]cn1)NC(=O)[C@@H](N)CO)C(=O)N[C@@H](CCCNC(=N)N)C(=O)N[C@@H](CC(N)=O)C(=O)O
REMARK SMILES IDX 7 1 8 2 6 3 9 5 14 6 15 7 16 8 17 10 24 11 25 12 26 13 27 15
REMARK SMILES IDX 28 16 29 19 30 20 18 22 19 23 23 24 20 25 22 26 21 27 10 29
REMARK SMILES IDX 11 30 12 31 13 32 5 33 31 34 33 35 32 36 34 38 42 39 44 40
REMARK SMILES IDX 43 41 45 43 50 44 51 45 52 46 46 48 47 49 48 50 49 51 35 54
REMARK SMILES IDX 36 55 37 56 38 57 39 58 41 59 40 63 3 65 4 66 2 67 1 68
REMARK H PARENT 6 4 14 9 24 14 28 17 28 18 30 21 21 28 33 37 44 42 52 47 48 52
REMARK H PARENT 48 53 38 60 41 61 41 62 40 64
ROOT
ATOM      1  C   LEU A   3      20.043  10.085  -6.473  1.00  0.00     0.243 C 
ATOM      2  O   LEU A   3      20.155   9.154  -5.627  1.00  0.00    -0.273 OA
ATOM      3  N   ILE A   4      20.579   9.941  -7.776  1.00  0.00    -0.342 N 
ATOM      4  H   UNL     1      20.497  10.739  -8.447  1.00  0.00     0.164 HD
ENDROOT
BRANCH   1   5
ATOM      5  CA  LEU A   3      19.325  11.350  -6.135  1.00  0.00     0.171 C 
BRANCH   5   6
ATOM      6  N   LEU A   3      18.071  11.012  -5.515  1.00  0.00    -0.342 N 
ATOM      7  C   HIS A   2      16.872  11.737  -5.741  1.00  0.00     0.243 C 
ATOM      8  O   HIS A   2      16.888  12.786  -6.446  1.00  0.00    -0.273 OA
ATOM      9  H   UNL     1      18.140  10.370  -4.701  1.00  0.00     0.164 HD
BRANCH   7  10
ATOM     10  CA  HIS A   2      15.623  11.283  -5.036  1.00  0.00     0.177 C 
BRANCH  10  11
ATOM     11  N   HIS A   2      14.441  11.727  -5.759  1.00  0.00    -0.342 N 
ATOM     12  C   SER A   1      13.915  13.043  -5.632  1.00  0.00     0.239 C 
ATOM     13  O   SER A   1      14.450  13.860  -4.833  1.00  0.00    -0.273 OA
ATOM     14  H   UNL     1      13.858  10.998  -6.224  1.00  0.00     0.164 HD
BRANCH  12  15
ATOM     15  CA  SER A   1      12.661  13.410  -6.391  1.00  0.00     0.167 C 
BRANCH  15  16
ATOM     16  N   SER A   1      12.456  14.860  -6.399  1.00  0.00    -0.318 NA
ATOM     17  H   UNL     1      12.286  15.187  -5.420  1.00  0.00     0.119 HD
ATOM     18  H   UNL     1      13.319  15.336  -6.752  1.00  0.00     0.119 HD
ENDBRANCH  15  16
BRANCH  15  19
ATOM     19  CB  SER A   1      12.694  12.890  -7.844  1.00  0.00     0.184 C 
BRANCH  19  20
ATOM     20  OG  SER A   1      11.437  13.059  -8.437  1.00  0.00    -0.394 OA
ATOM     21  H   UNL     1      11.538  12.792  -9.388  1.00  0.00     0.210 HD
ENDBRANCH  19  20
ENDBRANCH  15  19
ENDBRANCH  12  15
ENDBRANCH  10  11
BRANCH  10  22
ATOM     22  CB  HIS A   2      15.577   9.738  -4.902  1.00  0.00     0.093 C 
BRANCH  22  23
ATOM     23  CG  HIS A   2      14.399   9.291  -4.101  1.00  0.00     0.061 A 
ATOM     24  ND1 HIS A   2      13.293   8.732  -4.633  1.00  0.00    -0.242 NA
ATOM     25  CD2 HIS A   2      14.245   9.428  -2.739  1.00  0.00     0.107 A 
ATOM     26  CE1 HIS A   2      12.488   8.532  -3.568  1.00  0.00     0.196 A 
ATOM     27  NE2 HIS A   2      13.039   8.943  -2.411  1.00  0.00    -0.351 N 
ATOM     28  H   UNL     1      12.613   8.901  -1.459  1.00  0.00     0.167 HD
ENDBRANCH  22  23
ENDBRANCH  10  22
ENDBRANCH   7  10
ENDBRANCH   5   6
BRANCH   5  29
ATOM     29  CB  LEU A   3      20.156  12.251  -5.213  1.00  0.00     0.038 C 
BRANCH  29  30
ATOM     30  CG  LEU A   3      20.415  11.678  -3.790  1.00  0.00    -0.015 C 
ATOM     31  CD1 LEU A   3      21.819  12.066  -3.319  1.00  0.00     0.007 C 
ATOM     32  CD2 LEU A   3      19.370  12.168  -2.776  1.00  0.00     0.007 C 
ENDBRANCH  29  30
ENDBRANCH   5  29
ENDBRANCH   1   5
BRANCH   3  33
ATOM     33  CA  ILE A   4      21.345   8.773  -8.167  1.00  0.00     0.174 C 
BRANCH  33  34
ATOM     34  C   ILE A   4      22.719   9.217  -8.536  1.00  0.00     0.243 C 
ATOM     35  N   ARG A   5      23.821   8.720  -7.790  1.00  0.00    -0.343 N 
ATOM     36  O   ILE A   4      22.895  10.046  -9.468  1.00  0.00    -0.273 OA
ATOM     37  H   UNL     1      23.660   8.030  -7.021  1.00  0.00     0.164 HD
BRANCH  35  38
ATOM     38  CA  ARG A   5      25.186   9.120  -8.072  1.00  0.00     0.171 C 
BRANCH  38  39
ATOM     39  C   ARG A   5      25.900   7.966  -8.685  1.00  0.00     0.243 C 
ATOM     40  N   ASN A   6      25.913   7.864 -10.102  1.00  0.00    -0.341 N 
ATOM     41  O   ARG A   5      26.448   7.086  -7.969  1.00  0.00    -0.273 OA
ATOM     42  H   UNL     1      25.488   8.646 -10.650  1.00  0.00     0.164 HD
BRANCH  40  43
ATOM     43  CA  ASN A   6      26.542   6.750 -10.804  1.00  0.00     0.201 C 
BRANCH  43  44
ATOM     44  C   ASN A   6      27.993   6.642 -10.416  1.00  0.00     0.326 C 
ATOM     45  O   ASN A   6      28.794   7.579 -10.677  1.00  0.00    -0.250 OA
BRANCH  44  46
ATOM     46  OXT ASN A   6      28.452   5.499  -9.769  1.00  0.00    -0.480 OA
ATOM     47  H   UNL     1      29.424   5.409  -9.500  1.00  0.00     0.296 HD
ENDBRANCH  44  46
ENDBRANCH  43  44
BRANCH  43  48
ATOM     48  CB  ASN A   6      26.425   6.947 -12.323  1.00  0.00     0.136 C 
BRANCH  48  49
ATOM     49  CG  ASN A   6      25.010   7.181 -12.773  1.00  0.00     0.220 C 
ATOM     50  ND2 ASN A   6      24.754   8.091 -13.833  1.00  0.00    -0.370 N 
ATOM     51  OD1 ASN A   6      24.053   6.558 -12.243  1.00  0.00    -0.275 OA
ATOM     52  H   UNL     1      23.775   8.259 -14.156  1.00  0.00     0.159 HD
ATOM     53  H   UNL     1      25.533   8.600 -14.306  1.00  0.00     0.159 HD
ENDBRANCH  48  49
ENDBRANCH  43  48
ENDBRANCH  40  43
ENDBRANCH  38  39
BRANCH  38  54
ATOM     54  CB  ARG A   5      25.861   9.602  -6.793  1.00  0.00     0.037 C 
BRANCH  54  55
ATOM     55  CG  ARG A   5      25.166  10.860  -6.271  1.00  0.00     0.024 C 
BRANCH  55  56
ATOM     56  CD  ARG A   5      25.839  11.392  -5.014  1.00  0.00     0.116 C 
BRANCH  56  57
ATOM     57  NE  ARG A   5      25.377  10.684  -3.823  1.00  0.00    -0.357 N 
ATOM     58  CZ  ARG A   5      25.468  11.279  -2.527  1.00  0.00     0.185 C 
ATOM     59  NH2 ARG A   5      26.105  12.541  -2.350  1.00  0.00    -0.370 N 
ATOM     60  H   UNL     1      24.899   9.760  -3.921  1.00  0.00     0.163 HD
ATOM     61  H   UNL     1      26.081  13.007  -1.415  1.00  0.00     0.159 HD
ATOM     62  H   UNL     1      26.692  12.983  -3.090  1.00  0.00     0.159 HD
BRANCH  58  63
ATOM     63  NH1 ARG A   5      24.956  10.679  -1.500  1.00  0.00    -0.270 NA
ATOM     64  H   UNL     1      24.474   9.757  -1.584  1.00  0.00     0.191 HD
ENDBRANCH  58  63
ENDBRANCH  56  57
ENDBRANCH  55  56
ENDBRANCH  54  55
ENDBRANCH  38  54
ENDBRANCH  35  38
ENDBRANCH  33  34
BRANCH  33  65
ATOM     65  CB  ILE A   4      20.628   7.977  -9.284  1.00  0.00     0.018 C 
ATOM     66  CG1 ILE A   4      20.218   8.831 -10.500  1.00  0.00     0.010 C 
BRANCH  65  67
ATOM     67  CG2 ILE A   4      21.454   6.763  -9.763  1.00  0.00     0.002 C 
ATOM     68  CD1 ILE A   4      21.770   5.775  -8.641  1.00  0.00     0.004 C 
ENDBRANCH  65  67
ENDBRANCH  33  65
ENDBRANCH   3  33
TORSDOF 28
