REMARK SMILES CC(C)C[C@H](NC(=O)CNC(=O)[C@@H]1CCCN1C(=O)[C@@H](N)CO)C(=O)N[C@@H](CCCNC(=N)N)C(=O)N[C@@H](CC(N)=O)C(=O)O
REMARK SMILES IDX 7 1 8 2 6 3 9 5 10 6 11 7 12 8 13 10 17 11 16 12 14 13 15 14
REMARK SMILES IDX 18 15 19 16 20 17 21 18 22 21 23 22 5 24 24 25 26 26 25 27
REMARK SMILES IDX 27 29 35 30 37 31 36 32 38 34 43 35 44 36 45 37 39 39 40 40
REMARK SMILES IDX 41 41 42 42 28 45 29 46 30 47 31 48 32 49 34 50 33 54 4 56
REMARK SMILES IDX 2 57 1 58 3 59
REMARK H PARENT 6 4 10 9 21 19 21 20 23 23 26 28 37 33 45 38 41 43 41 44 31 51
REMARK H PARENT 34 52 34 53 33 55
ROOT
ATOM      1  C   GLY A   3      20.037  10.089  -6.445  1.00  0.00     0.240 C 
ATOM      2  O   GLY A   3      20.184   9.185  -5.578  1.00  0.00    -0.273 OA
ATOM      3  N   LEU A   4      20.552   9.925  -7.760  1.00  0.00    -0.343 N 
ATOM      4  H   UNL     1      20.372  10.662  -8.480  1.00  0.00     0.164 HD
ENDROOT
BRANCH   1   5
ATOM      5  CA  GLY A   3      19.315  11.341  -6.098  1.00  0.00     0.216 C 
BRANCH   5   6
ATOM      6  N   GLY A   3      18.026  10.999  -5.523  1.00  0.00    -0.345 N 
ATOM      7  C   PRO A   2      16.860  11.780  -5.754  1.00  0.00     0.243 C 
ATOM      8  O   PRO A   2      16.921  12.823  -6.459  1.00  0.00    -0.273 OA
ATOM      9  H   UNL     1      17.993  10.263  -4.782  1.00  0.00     0.164 HD
BRANCH   7  10
ATOM     10  CA  PRO A   2      15.556  11.378  -5.120  1.00  0.00     0.174 C 
ATOM     11  N   PRO A   2      15.414   9.926  -5.072  1.00  0.00    -0.329 N 
ATOM     12  CD  PRO A   2      15.399   9.413  -3.711  1.00  0.00     0.120 C 
ATOM     13  CB  PRO A   2      15.478  11.846  -3.665  1.00  0.00     0.037 C 
ATOM     14  CG  PRO A   2      15.708  10.602  -2.811  1.00  0.00     0.024 C 
BRANCH  11  15
ATOM     15  C   SER A   1      15.275   9.056  -6.216  1.00  0.00     0.242 C 
ATOM     16  O   SER A   1      15.190   7.810  -6.033  1.00  0.00    -0.273 OA
BRANCH  15  17
ATOM     17  CA  SER A   1      15.255   9.579  -7.637  1.00  0.00     0.167 C 
BRANCH  17  18
ATOM     18  N   SER A   1      16.415   9.060  -8.362  1.00  0.00    -0.318 NA
ATOM     19  H   UNL     1      16.430   9.491  -9.315  1.00  0.00     0.119 HD
ATOM     20  H   UNL     1      17.282   9.399  -7.882  1.00  0.00     0.119 HD
ENDBRANCH  17  18
BRANCH  17  21
ATOM     21  CB  SER A   1      13.961   9.153  -8.346  1.00  0.00     0.184 C 
BRANCH  21  22
ATOM     22  OG  SER A   1      12.851   9.681  -7.673  1.00  0.00    -0.394 OA
ATOM     23  H   UNL     1      12.052   9.365  -8.171  1.00  0.00     0.210 HD
ENDBRANCH  21  22
ENDBRANCH  17  21
ENDBRANCH  15  17
ENDBRANCH  11  15
ENDBRANCH   7  10
ENDBRANCH   5   6
ENDBRANCH   1   5
BRANCH   3  24
ATOM     24  CA  LEU A   4      21.342   8.765  -8.134  1.00  0.00     0.171 C 
BRANCH  24  25
ATOM     25  C   LEU A   4      22.708   9.221  -8.517  1.00  0.00     0.243 C 
ATOM     26  N   ARG A   5      23.819   8.721  -7.785  1.00  0.00    -0.343 N 
ATOM     27  O   LEU A   4      22.873  10.035  -9.466  1.00  0.00    -0.273 OA
ATOM     28  H   UNL     1      23.664   8.030  -7.015  1.00  0.00     0.164 HD
BRANCH  26  29
ATOM     29  CA  ARG A   5      25.183   9.122  -8.073  1.00  0.00     0.171 C 
BRANCH  29  30
ATOM     30  C   ARG A   5      25.898   7.968  -8.686  1.00  0.00     0.243 C 
ATOM     31  N   ASN A   6      25.912   7.864 -10.102  1.00  0.00    -0.341 N 
ATOM     32  O   ARG A   5      26.446   7.087  -7.969  1.00  0.00    -0.273 OA
ATOM     33  H   UNL     1      25.489   8.648 -10.651  1.00  0.00     0.164 HD
BRANCH  31  34
ATOM     34  CA  ASN A   6      26.542   6.751 -10.804  1.00  0.00     0.201 C 
BRANCH  34  35
ATOM     35  C   ASN A   6      27.992   6.642 -10.415  1.00  0.00     0.326 C 
ATOM     36  O   ASN A   6      28.794   7.579 -10.677  1.00  0.00    -0.250 OA
BRANCH  35  37
ATOM     37  OXT ASN A   6      28.451   5.499  -9.768  1.00  0.00    -0.480 OA
ATOM     38  H   UNL     1      29.423   5.409  -9.499  1.00  0.00     0.296 HD
ENDBRANCH  35  37
ENDBRANCH  34  35
BRANCH  34  39
ATOM     39  CB  ASN A   6      26.424   6.946 -12.323  1.00  0.00     0.136 C 
BRANCH  39  40
ATOM     40  CG  ASN A   6      25.010   7.180 -12.773  1.00  0.00     0.220 C 
ATOM     41  ND2 ASN A   6      24.753   8.090 -13.833  1.00  0.00    -0.370 N 
ATOM     42  OD1 ASN A   6      24.053   6.558 -12.243  1.00  0.00    -0.275 OA
ATOM     43  H   UNL     1      25.533   8.600 -14.306  1.00  0.00     0.159 HD
ATOM     44  H   UNL     1      23.775   8.258 -14.156  1.00  0.00     0.159 HD
ENDBRANCH  39  40
ENDBRANCH  34  39
ENDBRANCH  31  34
ENDBRANCH  29  30
BRANCH  29  45
ATOM     45  CB  ARG A   5      25.862   9.604  -6.796  1.00  0.00     0.037 C 
BRANCH  45  46
ATOM     46  CG  ARG A   5      25.167  10.860  -6.270  1.00  0.00     0.024 C 
BRANCH  46  47
ATOM     47  CD  ARG A   5      25.843  11.390  -5.014  1.00  0.00     0.116 C 
BRANCH  47  48
ATOM     48  NE  ARG A   5      25.378  10.687  -3.820  1.00  0.00    -0.357 N 
ATOM     49  CZ  ARG A   5      25.470  11.282  -2.526  1.00  0.00     0.185 C 
ATOM     50  NH2 ARG A   5      26.109  12.546  -2.351  1.00  0.00    -0.370 N 
ATOM     51  H   UNL     1      24.900   9.761  -3.912  1.00  0.00     0.163 HD
ATOM     52  H   UNL     1      26.083  13.023  -1.422  1.00  0.00     0.159 HD
ATOM     53  H   UNL     1      26.700  12.981  -3.092  1.00  0.00     0.159 HD
BRANCH  49  54
ATOM     54  NH1 ARG A   5      24.956  10.671  -1.506  1.00  0.00    -0.270 NA
ATOM     55  H   UNL     1      24.999  11.075  -0.544  1.00  0.00     0.191 HD
ENDBRANCH  49  54
ENDBRANCH  47  48
ENDBRANCH  46  47
ENDBRANCH  45  46
ENDBRANCH  29  45
ENDBRANCH  26  29
ENDBRANCH  24  25
BRANCH  24  56
ATOM     56  CB  LEU A   4      20.650   8.002  -9.268  1.00  0.00     0.038 C 
BRANCH  56  57
ATOM     57  CG  LEU A   4      21.446   6.775  -9.766  1.00  0.00    -0.015 C 
ATOM     58  CD1 LEU A   4      21.761   5.781  -8.638  1.00  0.00     0.007 C 
ATOM     59  CD2 LEU A   4      20.661   6.070 -10.876  1.00  0.00     0.007 C 
ENDBRANCH  56  57
ENDBRANCH  24  56
ENDBRANCH   3  24
TORSDOF 24
