REMARK SMILES CC(C)C[C@H](NC(=O)[C@H](CO)NC(=O)[C@H](Cc1ccccc1)NC(=O)[C@@H](N)CO)C(=O)N[C@@H](CCCNC(=N)N)C(=O)N[C@@H](C)C(=O)O
REMARK SMILES IDX 7 1 8 2 6 3 9 5 12 6 13 7 14 8 15 10 23 11 24 12 25 13 26 15
REMARK SMILES IDX 27 16 28 19 29 20 16 22 17 23 18 24 22 25 19 26 21 27 20 28
REMARK SMILES IDX 10 29 11 30 5 32 30 33 32 34 31 35 33 37 41 38 43 39 42 40
REMARK SMILES IDX 44 42 45 43 46 44 47 45 48 46 34 48 35 49 36 50 37 51 38 52
REMARK SMILES IDX 40 53 39 57 4 59 2 60 1 61 3 62
REMARK H PARENT 6 4 12 9 23 14 27 17 27 18 29 21 11 31 32 36 43 41 48 47 37 54
REMARK H PARENT 40 55 40 56 39 58
ROOT
ATOM      1  C   SER A   3      20.044  10.101  -6.462  1.00  0.00     0.245 C 
ATOM      2  O   SER A   3      20.173   9.200  -5.587  1.00  0.00    -0.273 OA
ATOM      3  N   LEU A   4      20.559   9.921  -7.772  1.00  0.00    -0.342 N 
ATOM      4  H   UNL     1      20.391  10.655  -8.498  1.00  0.00     0.164 HD
ENDROOT
BRANCH   1   5
ATOM      5  CA  SER A   3      19.341  11.377  -6.145  1.00  0.00     0.197 C 
BRANCH   5   6
ATOM      6  N   SER A   3      18.094  11.060  -5.496  1.00  0.00    -0.340 N 
ATOM      7  C   PHE A   2      16.886  11.751  -5.776  1.00  0.00     0.243 C 
ATOM      8  O   PHE A   2      16.897  12.790  -6.490  1.00  0.00    -0.273 OA
ATOM      9  H   UNL     1      18.187  10.559  -4.585  1.00  0.00     0.164 HD
BRANCH   7  10
ATOM     10  CA  PHE A   2      15.652  11.314  -5.060  1.00  0.00     0.175 C 
BRANCH  10  11
ATOM     11  N   PHE A   2      14.452  11.739  -5.768  1.00  0.00    -0.343 N 
ATOM     12  C   SER A   1      13.913  13.049  -5.637  1.00  0.00     0.239 C 
ATOM     13  O   SER A   1      14.447  13.869  -4.840  1.00  0.00    -0.273 OA
ATOM     14  H   UNL     1      13.861  10.998  -6.204  1.00  0.00     0.164 HD
BRANCH  12  15
ATOM     15  CA  SER A   1      12.654  13.409  -6.387  1.00  0.00     0.167 C 
BRANCH  15  16
ATOM     16  N   SER A   1      12.467  14.862  -6.384  1.00  0.00    -0.318 NA
ATOM     17  H   UNL     1      11.583  15.088  -6.894  1.00  0.00     0.119 HD
ATOM     18  H   UNL     1      12.302  15.172  -5.399  1.00  0.00     0.119 HD
ENDBRANCH  15  16
BRANCH  15  19
ATOM     19  CB  SER A   1      12.699  12.894  -7.844  1.00  0.00     0.184 C 
BRANCH  19  20
ATOM     20  OG  SER A   1      11.440  13.041  -8.440  1.00  0.00    -0.394 OA
ATOM     21  H   UNL     1      11.550  12.778  -9.392  1.00  0.00     0.210 HD
ENDBRANCH  19  20
ENDBRANCH  15  19
ENDBRANCH  12  15
ENDBRANCH  10  11
BRANCH  10  22
ATOM     22  CB  PHE A   2      15.619   9.775  -4.891  1.00  0.00     0.070 C 
BRANCH  22  23
ATOM     23  CG  PHE A   2      14.449   9.289  -4.088  1.00  0.00    -0.045 A 
ATOM     24  CD1 PHE A   2      13.906  10.046  -3.032  1.00  0.00     0.004 A 
ATOM     25  CD2 PHE A   2      13.972   7.990  -4.310  1.00  0.00     0.004 A 
ATOM     26  CE1 PHE A   2      12.870   9.536  -2.261  1.00  0.00     0.000 A 
ATOM     27  CE2 PHE A   2      12.941   7.478  -3.522  1.00  0.00     0.000 A 
ATOM     28  CZ  PHE A   2      12.387   8.253  -2.503  1.00  0.00     0.000 A 
ENDBRANCH  22  23
ENDBRANCH  10  22
ENDBRANCH   7  10
ENDBRANCH   5   6
BRANCH   5  29
ATOM     29  CB  SER A   3      20.190  12.246  -5.218  1.00  0.00     0.191 C 
BRANCH  29  30
ATOM     30  OG  SER A   3      19.578  13.490  -5.007  1.00  0.00    -0.394 OA
ATOM     31  H   UNL     1      18.939  13.373  -4.257  1.00  0.00     0.210 HD
ENDBRANCH  29  30
ENDBRANCH   5  29
ENDBRANCH   1   5
BRANCH   3  32
ATOM     32  CA  LEU A   4      21.346   8.760  -8.137  1.00  0.00     0.171 C 
BRANCH  32  33
ATOM     33  C   LEU A   4      22.711   9.217  -8.519  1.00  0.00     0.243 C 
ATOM     34  N   ARG A   5      23.822   8.720  -7.787  1.00  0.00    -0.343 N 
ATOM     35  O   LEU A   4      22.874  10.033  -9.466  1.00  0.00    -0.273 OA
ATOM     36  H   UNL     1      23.668   8.030  -7.016  1.00  0.00     0.164 HD
BRANCH  34  37
ATOM     37  CA  ARG A   5      25.185   9.120  -8.078  1.00  0.00     0.171 C 
BRANCH  37  38
ATOM     38  C   ARG A   5      25.897   7.963  -8.692  1.00  0.00     0.243 C 
ATOM     39  N   ALA A   6      25.884   7.840 -10.110  1.00  0.00    -0.341 N 
ATOM     40  O   ARG A   5      26.455   7.090  -7.974  1.00  0.00    -0.273 OA
ATOM     41  H   UNL     1      25.367   8.562 -10.663  1.00  0.00     0.164 HD
BRANCH  39  42
ATOM     42  CA  ALA A   6      26.544   6.745 -10.813  1.00  0.00     0.189 C 
ATOM     43  CB  ALA A   6      26.419   6.955 -12.323  1.00  0.00     0.043 C 
BRANCH  42  44
ATOM     44  C   ALA A   6      27.993   6.652 -10.418  1.00  0.00     0.325 C 
ATOM     45  O   ALA A   6      28.790   7.589 -10.686  1.00  0.00    -0.250 OA
BRANCH  44  46
ATOM     46  OXT ALA A   6      28.455   5.520  -9.752  1.00  0.00    -0.480 OA
ATOM     47  H   UNL     1      29.427   5.440  -9.477  1.00  0.00     0.296 HD
ENDBRANCH  44  46
ENDBRANCH  42  44
ENDBRANCH  39  42
ENDBRANCH  37  38
BRANCH  37  48
ATOM     48  CB  ARG A   5      25.864   9.604  -6.801  1.00  0.00     0.037 C 
BRANCH  48  49
ATOM     49  CG  ARG A   5      25.167  10.858  -6.272  1.00  0.00     0.024 C 
BRANCH  49  50
ATOM     50  CD  ARG A   5      25.842  11.389  -5.015  1.00  0.00     0.116 C 
BRANCH  50  51
ATOM     51  NE  ARG A   5      25.378  10.686  -3.821  1.00  0.00    -0.357 N 
ATOM     52  CZ  ARG A   5      25.470  11.281  -2.527  1.00  0.00     0.185 C 
ATOM     53  NH2 ARG A   5      26.109  12.546  -2.352  1.00  0.00    -0.370 N 
ATOM     54  H   UNL     1      24.899   9.761  -3.913  1.00  0.00     0.163 HD
ATOM     55  H   UNL     1      26.699  12.981  -3.094  1.00  0.00     0.159 HD
ATOM     56  H   UNL     1      26.084  13.022  -1.423  1.00  0.00     0.159 HD
BRANCH  52  57
ATOM     57  NH1 ARG A   5      24.956  10.671  -1.507  1.00  0.00    -0.270 NA
ATOM     58  H   UNL     1      24.999  11.075  -0.545  1.00  0.00     0.191 HD
ENDBRANCH  52  57
ENDBRANCH  50  51
ENDBRANCH  49  50
ENDBRANCH  48  49
ENDBRANCH  37  48
ENDBRANCH  34  37
ENDBRANCH  32  33
BRANCH  32  59
ATOM     59  CB  LEU A   4      20.655   7.998  -9.271  1.00  0.00     0.038 C 
BRANCH  59  60
ATOM     60  CG  LEU A   4      21.449   6.770  -9.769  1.00  0.00    -0.015 C 
ATOM     61  CD1 LEU A   4      21.764   5.779  -8.639  1.00  0.00     0.007 C 
ATOM     62  CD2 LEU A   4      20.660   6.066 -10.876  1.00  0.00     0.007 C 
ENDBRANCH  59  60
ENDBRANCH  32  59
ENDBRANCH   3  32
TORSDOF 26
