REMARK SMILES CC(C)C[C@H](NC(=O)[C@H](Cc1ccccc1)NC(=O)[C@@H](N)CO)C(=O)N[C@@H](C)C(=O)N[C@@H](CCCNC(=N)N)C(=O)N[C@@H](C)C(=O)O
REMARK SMILES IDX 24 1 25 2 26 3 5 5 6 6 7 7 8 8 9 10 17 11 18 12 19 13 20 15
REMARK SMILES IDX 21 16 22 19 23 20 10 22 11 23 12 24 16 25 13 26 15 27 14 28
REMARK SMILES IDX 4 29 2 30 1 31 3 32 27 33 28 34 29 35 31 36 30 37 32 39
REMARK SMILES IDX 40 40 42 41 41 42 43 44 44 45 45 46 46 47 47 48 33 50 34 51
REMARK SMILES IDX 35 52 36 53 37 54 39 55 38 59
REMARK H PARENT 26 4 6 9 17 14 21 17 21 18 23 21 31 38 42 43 47 49 36 56 39 57
REMARK H PARENT 39 58 38 60
ROOT
ATOM      1  C   LEU A   3      20.054  10.082  -6.477  1.00  0.00     0.243 C 
ATOM      2  O   LEU A   3      20.167   9.158  -5.624  1.00  0.00    -0.273 OA
ATOM      3  N   ALA A   4      20.564   9.911  -7.787  1.00  0.00    -0.343 N 
ATOM      4  H   UNL     1      20.402  10.653  -8.506  1.00  0.00     0.164 HD
ENDROOT
BRANCH   1   5
ATOM      5  CA  LEU A   3      19.341  11.352  -6.147  1.00  0.00     0.171 C 
BRANCH   5   6
ATOM      6  N   LEU A   3      18.083  11.020  -5.538  1.00  0.00    -0.343 N 
ATOM      7  C   PHE A   2      16.887  11.745  -5.775  1.00  0.00     0.243 C 
ATOM      8  O   PHE A   2      16.906  12.796  -6.474  1.00  0.00    -0.273 OA
ATOM      9  H   UNL     1      18.156  10.386  -4.718  1.00  0.00     0.164 HD
BRANCH   7  10
ATOM     10  CA  PHE A   2      15.652  11.314  -5.056  1.00  0.00     0.175 C 
BRANCH  10  11
ATOM     11  N   PHE A   2      14.456  11.740  -5.769  1.00  0.00    -0.343 N 
ATOM     12  C   SER A   1      13.914  13.049  -5.637  1.00  0.00     0.239 C 
ATOM     13  O   SER A   1      14.442  13.869  -4.836  1.00  0.00    -0.273 OA
ATOM     14  H   UNL     1      13.876  11.000  -6.220  1.00  0.00     0.164 HD
BRANCH  12  15
ATOM     15  CA  SER A   1      12.661  13.410  -6.390  1.00  0.00     0.167 C 
BRANCH  15  16
ATOM     16  N   SER A   1      12.475  14.863  -6.375  1.00  0.00    -0.318 NA
ATOM     17  H   UNL     1      11.521  15.090  -6.739  1.00  0.00     0.119 HD
ATOM     18  H   UNL     1      13.175  15.314  -7.009  1.00  0.00     0.119 HD
ENDBRANCH  15  16
BRANCH  15  19
ATOM     19  CB  SER A   1      12.688  12.878  -7.844  1.00  0.00     0.184 C 
BRANCH  19  20
ATOM     20  OG  SER A   1      11.436  13.047  -8.450  1.00  0.00    -0.394 OA
ATOM     21  H   UNL     1      11.447  13.936  -8.892  1.00  0.00     0.210 HD
ENDBRANCH  19  20
ENDBRANCH  15  19
ENDBRANCH  12  15
ENDBRANCH  10  11
BRANCH  10  22
ATOM     22  CB  PHE A   2      15.610   9.774  -4.880  1.00  0.00     0.070 C 
BRANCH  22  23
ATOM     23  CG  PHE A   2      14.435   9.292  -4.092  1.00  0.00    -0.045 A 
ATOM     24  CD1 PHE A   2      13.897  10.048  -3.033  1.00  0.00     0.004 A 
ATOM     25  CD2 PHE A   2      13.964   7.991  -4.310  1.00  0.00     0.004 A 
ATOM     26  CE1 PHE A   2      12.866   9.535  -2.258  1.00  0.00     0.000 A 
ATOM     27  CE2 PHE A   2      12.937   7.477  -3.520  1.00  0.00     0.000 A 
ATOM     28  CZ  PHE A   2      12.384   8.251  -2.500  1.00  0.00     0.000 A 
ENDBRANCH  22  23
ENDBRANCH  10  22
ENDBRANCH   7  10
ENDBRANCH   5   6
BRANCH   5  29
ATOM     29  CB  LEU A   3      20.164  12.252  -5.216  1.00  0.00     0.038 C 
BRANCH  29  30
ATOM     30  CG  LEU A   3      20.417  11.679  -3.791  1.00  0.00    -0.015 C 
ATOM     31  CD1 LEU A   3      21.819  12.066  -3.316  1.00  0.00     0.007 C 
ATOM     32  CD2 LEU A   3      19.369  12.169  -2.781  1.00  0.00     0.007 C 
ENDBRANCH  29  30
ENDBRANCH   5  29
ENDBRANCH   1   5
BRANCH   3  33
ATOM     33  CA  ALA A   4      21.343   8.746  -8.158  1.00  0.00     0.168 C 
ATOM     34  CB  ALA A   4      20.665   8.004  -9.300  1.00  0.00     0.041 C 
BRANCH  33  35
ATOM     35  C   ALA A   4      22.710   9.198  -8.534  1.00  0.00     0.242 C 
ATOM     36  N   ARG A   5      23.818   8.706  -7.793  1.00  0.00    -0.343 N 
ATOM     37  O   ALA A   4      22.876  10.027  -9.470  1.00  0.00    -0.273 OA
ATOM     38  H   UNL     1      23.663   7.986  -7.051  1.00  0.00     0.164 HD
BRANCH  36  39
ATOM     39  CA  ARG A   5      25.182   9.115  -8.077  1.00  0.00     0.171 C 
BRANCH  39  40
ATOM     40  C   ARG A   5      25.899   7.963  -8.693  1.00  0.00     0.243 C 
ATOM     41  N   ALA A   6      25.887   7.841 -10.111  1.00  0.00    -0.341 N 
ATOM     42  O   ARG A   5      26.458   7.090  -7.975  1.00  0.00    -0.273 OA
ATOM     43  H   UNL     1      25.375   8.567 -10.663  1.00  0.00     0.164 HD
BRANCH  41  44
ATOM     44  CA  ALA A   6      26.545   6.746 -10.814  1.00  0.00     0.189 C 
ATOM     45  CB  ALA A   6      26.421   6.955 -12.324  1.00  0.00     0.043 C 
BRANCH  44  46
ATOM     46  C   ALA A   6      27.995   6.651 -10.418  1.00  0.00     0.325 C 
ATOM     47  O   ALA A   6      28.792   7.589 -10.686  1.00  0.00    -0.250 OA
BRANCH  46  48
ATOM     48  OXT ALA A   6      28.457   5.519  -9.755  1.00  0.00    -0.480 OA
ATOM     49  H   UNL     1      29.429   5.438  -9.480  1.00  0.00     0.296 HD
ENDBRANCH  46  48
ENDBRANCH  44  46
ENDBRANCH  41  44
ENDBRANCH  39  40
BRANCH  39  50
ATOM     50  CB  ARG A   5      25.857   9.599  -6.798  1.00  0.00     0.037 C 
BRANCH  50  51
ATOM     51  CG  ARG A   5      25.162  10.855  -6.272  1.00  0.00     0.024 C 
BRANCH  51  52
ATOM     52  CD  ARG A   5      25.838  11.388  -5.016  1.00  0.00     0.116 C 
BRANCH  52  53
ATOM     53  NE  ARG A   5      25.377  10.685  -3.821  1.00  0.00    -0.357 N 
ATOM     54  CZ  ARG A   5      25.469  11.281  -2.527  1.00  0.00     0.185 C 
ATOM     55  NH2 ARG A   5      26.107  12.546  -2.353  1.00  0.00    -0.370 N 
ATOM     56  H   UNL     1      24.894   9.762  -3.912  1.00  0.00     0.163 HD
ATOM     57  H   UNL     1      26.696  12.982  -3.095  1.00  0.00     0.159 HD
ATOM     58  H   UNL     1      26.080  13.024  -1.425  1.00  0.00     0.159 HD
BRANCH  54  59
ATOM     59  NH1 ARG A   5      24.955  10.672  -1.507  1.00  0.00    -0.270 NA
ATOM     60  H   UNL     1      24.996  11.077  -0.546  1.00  0.00     0.191 HD
ENDBRANCH  54  59
ENDBRANCH  52  53
ENDBRANCH  51  52
ENDBRANCH  50  51
ENDBRANCH  39  50
ENDBRANCH  36  39
ENDBRANCH  33  35
ENDBRANCH   3  33
TORSDOF 24
