REMARK SMILES CC(C)C[C@H](NC(=O)[C@H](Cc1ccccc1)NC(=O)[C@@H](N)CO)C(=O)N[C@@H](CCCNC(=N)N)C(=O)N[C@@H](CC(N)=O)C(=O)N[C@@H](CC(N)=O)C(=O)O
REMARK SMILES IDX 24 1 25 2 26 3 5 5 6 6 7 7 8 8 9 10 17 11 18 12 19 13 20 15
REMARK SMILES IDX 21 16 22 19 23 20 10 22 11 23 12 24 16 25 13 26 15 27 14 28
REMARK SMILES IDX 4 29 2 30 1 31 3 32 27 33 35 34 37 35 36 36 38 38 43 39
REMARK SMILES IDX 45 40 44 41 46 43 51 44 52 45 53 46 47 48 48 49 49 50 50 51
REMARK SMILES IDX 39 54 40 55 41 56 42 57 28 60 29 61 30 62 31 63 32 64 34 65
REMARK SMILES IDX 33 69
REMARK H PARENT 26 4 6 9 17 14 21 17 21 18 23 21 37 37 45 42 53 47 49 52 49 53
REMARK H PARENT 41 58 41 59 31 66 34 67 34 68 33 70
ROOT
ATOM      1  C   LEU A   3      20.053  10.088  -6.475  1.00  0.00     0.243 C 
ATOM      2  O   LEU A   3      20.165   9.163  -5.623  1.00  0.00    -0.273 OA
ATOM      3  N   ARG A   4      20.568   9.923  -7.785  1.00  0.00    -0.343 N 
ATOM      4  H   UNL     1      20.403  10.665  -8.504  1.00  0.00     0.164 HD
ENDROOT
BRANCH   1   5
ATOM      5  CA  LEU A   3      19.342  11.356  -6.143  1.00  0.00     0.171 C 
BRANCH   5   6
ATOM      6  N   LEU A   3      18.083  11.021  -5.538  1.00  0.00    -0.343 N 
ATOM      7  C   PHE A   2      16.887  11.745  -5.776  1.00  0.00     0.243 C 
ATOM      8  O   PHE A   2      16.905  12.796  -6.474  1.00  0.00    -0.273 OA
ATOM      9  H   UNL     1      18.154  10.384  -4.720  1.00  0.00     0.164 HD
BRANCH   7  10
ATOM     10  CA  PHE A   2      15.652  11.312  -5.057  1.00  0.00     0.175 C 
BRANCH  10  11
ATOM     11  N   PHE A   2      14.456  11.739  -5.768  1.00  0.00    -0.343 N 
ATOM     12  C   SER A   1      13.917  13.048  -5.632  1.00  0.00     0.239 C 
ATOM     13  O   SER A   1      14.448  13.866  -4.831  1.00  0.00    -0.273 OA
ATOM     14  H   UNL     1      13.874  11.000  -6.219  1.00  0.00     0.164 HD
BRANCH  12  15
ATOM     15  CA  SER A   1      12.661  13.412  -6.387  1.00  0.00     0.167 C 
BRANCH  15  16
ATOM     16  N   SER A   1      12.457  14.862  -6.397  1.00  0.00    -0.318 NA
ATOM     17  H   UNL     1      12.292  15.192  -5.418  1.00  0.00     0.119 HD
ATOM     18  H   UNL     1      13.318  15.336  -6.757  1.00  0.00     0.119 HD
ENDBRANCH  15  16
BRANCH  15  19
ATOM     19  CB  SER A   1      12.690  12.888  -7.841  1.00  0.00     0.184 C 
BRANCH  19  20
ATOM     20  OG  SER A   1      11.437  13.050  -8.444  1.00  0.00    -0.394 OA
ATOM     21  H   UNL     1      11.386  13.993  -8.750  1.00  0.00     0.210 HD
ENDBRANCH  19  20
ENDBRANCH  15  19
ENDBRANCH  12  15
ENDBRANCH  10  11
BRANCH  10  22
ATOM     22  CB  PHE A   2      15.610   9.773  -4.880  1.00  0.00     0.070 C 
BRANCH  22  23
ATOM     23  CG  PHE A   2      14.435   9.292  -4.092  1.00  0.00    -0.045 A 
ATOM     24  CD1 PHE A   2      13.898  10.048  -3.033  1.00  0.00     0.004 A 
ATOM     25  CD2 PHE A   2      13.964   7.991  -4.310  1.00  0.00     0.004 A 
ATOM     26  CE1 PHE A   2      12.866   9.535  -2.258  1.00  0.00     0.000 A 
ATOM     27  CE2 PHE A   2      12.937   7.476  -3.520  1.00  0.00     0.000 A 
ATOM     28  CZ  PHE A   2      12.384   8.251  -2.500  1.00  0.00     0.000 A 
ENDBRANCH  22  23
ENDBRANCH  10  22
ENDBRANCH   7  10
ENDBRANCH   5   6
BRANCH   5  29
ATOM     29  CB  LEU A   3      20.165  12.250  -5.207  1.00  0.00     0.038 C 
BRANCH  29  30
ATOM     30  CG  LEU A   3      20.402  11.681  -3.777  1.00  0.00    -0.015 C 
ATOM     31  CD1 LEU A   3      21.794  12.071  -3.272  1.00  0.00     0.007 C 
ATOM     32  CD2 LEU A   3      19.342  12.176  -2.784  1.00  0.00     0.007 C 
ENDBRANCH  29  30
ENDBRANCH   5  29
ENDBRANCH   1   5
BRANCH   3  33
ATOM     33  CA  ARG A   4      21.350   8.761  -8.152  1.00  0.00     0.171 C 
BRANCH  33  34
ATOM     34  C   ARG A   4      22.715   9.216  -8.530  1.00  0.00     0.243 C 
ATOM     35  N   ASN A   5      23.822   8.713  -7.797  1.00  0.00    -0.342 N 
ATOM     36  O   ARG A   4      22.881  10.037  -9.472  1.00  0.00    -0.273 OA
ATOM     37  H   UNL     1      23.666   8.000  -7.049  1.00  0.00     0.164 HD
BRANCH  35  38
ATOM     38  CA  ASN A   5      25.186   9.129  -8.061  1.00  0.00     0.180 C 
BRANCH  38  39
ATOM     39  C   ASN A   5      25.906   7.978  -8.679  1.00  0.00     0.243 C 
ATOM     40  N   ASN A   6      25.914   7.871 -10.097  1.00  0.00    -0.340 N 
ATOM     41  O   ASN A   5      26.451   7.094  -7.964  1.00  0.00    -0.273 OA
ATOM     42  H   UNL     1      25.487   8.653 -10.645  1.00  0.00     0.164 HD
BRANCH  40  43
ATOM     43  CA  ASN A   6      26.541   6.755 -10.800  1.00  0.00     0.201 C 
BRANCH  43  44
ATOM     44  C   ASN A   6      27.992   6.643 -10.413  1.00  0.00     0.326 C 
ATOM     45  O   ASN A   6      28.794   7.578 -10.677  1.00  0.00    -0.250 OA
BRANCH  44  46
ATOM     46  OXT ASN A   6      28.449   5.500  -9.766  1.00  0.00    -0.480 OA
ATOM     47  H   UNL     1      29.421   5.408  -9.499  1.00  0.00     0.296 HD
ENDBRANCH  44  46
ENDBRANCH  43  44
BRANCH  43  48
ATOM     48  CB  ASN A   6      26.424   6.950 -12.320  1.00  0.00     0.136 C 
BRANCH  48  49
ATOM     49  CG  ASN A   6      25.010   7.182 -12.772  1.00  0.00     0.220 C 
ATOM     50  ND2 ASN A   6      24.754   8.090 -13.833  1.00  0.00    -0.370 N 
ATOM     51  OD1 ASN A   6      24.053   6.558 -12.243  1.00  0.00    -0.275 OA
ATOM     52  H   UNL     1      23.775   8.256 -14.158  1.00  0.00     0.159 HD
ATOM     53  H   UNL     1      25.533   8.601 -14.305  1.00  0.00     0.159 HD
ENDBRANCH  48  49
ENDBRANCH  43  48
ENDBRANCH  40  43
ENDBRANCH  38  39
BRANCH  38  54
ATOM     54  CB  ASN A   5      25.841   9.602  -6.763  1.00  0.00     0.134 C 
BRANCH  54  55
ATOM     55  CG  ASN A   5      25.233  10.893  -6.294  1.00  0.00     0.220 C 
ATOM     56  ND2 ASN A   5      23.869  10.972  -5.894  1.00  0.00    -0.370 N 
ATOM     57  OD1 ASN A   5      25.929  11.944  -6.315  1.00  0.00    -0.275 OA
ATOM     58  H   UNL     1      23.308  10.115  -5.695  1.00  0.00     0.159 HD
ATOM     59  H   UNL     1      23.422  11.909  -5.810  1.00  0.00     0.159 HD
ENDBRANCH  54  55
ENDBRANCH  38  54
ENDBRANCH  35  38
ENDBRANCH  33  34
BRANCH  33  60
ATOM     60  CB  ARG A   4      20.658   8.003  -9.286  1.00  0.00     0.037 C 
BRANCH  60  61
ATOM     61  CG  ARG A   4      21.445   6.771  -9.765  1.00  0.00     0.024 C 
BRANCH  61  62
ATOM     62  CD  ARG A   4      21.763   5.760  -8.652  1.00  0.00     0.116 C 
BRANCH  62  63
ATOM     63  NE  ARG A   4      20.564   5.389  -7.899  1.00  0.00    -0.357 N 
ATOM     64  CZ  ARG A   4      19.526   4.555  -8.433  1.00  0.00     0.185 C 
ATOM     65  NH2 ARG A   4      18.358   4.293  -7.651  1.00  0.00    -0.370 N 
ATOM     66  H   UNL     1      20.482   5.718  -6.911  1.00  0.00     0.163 HD
ATOM     67  H   UNL     1      17.592   3.685  -8.017  1.00  0.00     0.159 HD
ATOM     68  H   UNL     1      18.254   4.712  -6.701  1.00  0.00     0.159 HD
BRANCH  64  69
ATOM     69  NH1 ARG A   4      19.647   4.033  -9.614  1.00  0.00    -0.270 NA
ATOM     70  H   UNL     1      18.906   3.420 -10.022  1.00  0.00     0.191 HD
ENDBRANCH  64  69
ENDBRANCH  62  63
ENDBRANCH  61  62
ENDBRANCH  60  61
ENDBRANCH  33  60
ENDBRANCH   3  33
TORSDOF 28
