REMARK SMILES CC(C)C[C@H](NC(=O)[C@H](C)NC(=O)[C@H](Cc1ccc(O)cc1)NC(=O)[C@@H](N)CO)C(=O)N[C@@H](CCCNC(=N)N)C(=O)N[C@@H](CC(N)=O)C(=O)O
REMARK SMILES IDX 7 1 8 2 6 3 9 5 10 6 11 7 12 8 13 9 14 11 23 12 24 13 25 14
REMARK SMILES IDX 26 16 27 17 28 20 29 21 15 23 16 24 17 25 22 26 18 27 21 28
REMARK SMILES IDX 19 29 20 30 5 32 30 33 32 34 31 35 33 37 41 38 43 39 42 40
REMARK SMILES IDX 44 42 49 43 50 44 51 45 45 47 46 48 47 49 48 50 34 53 35 54
REMARK SMILES IDX 36 55 37 56 38 57 40 58 39 62 4 64 2 65 1 66 3 67
REMARK H PARENT 6 4 11 10 23 15 27 18 27 19 29 22 20 31 32 36 43 41 51 46
REMARK H PARENT 47 51 47 52 37 59 40 60 40 61 39 63
ROOT
ATOM      1  C   ALA A   3      20.046  10.101  -6.462  1.00  0.00     0.242 C 
ATOM      2  O   ALA A   3      20.174   9.200  -5.586  1.00  0.00    -0.273 OA
ATOM      3  N   LEU A   4      20.560   9.921  -7.772  1.00  0.00    -0.343 N 
ATOM      4  H   UNL     1      20.391  10.655  -8.498  1.00  0.00     0.164 HD
ENDROOT
BRANCH   1   5
ATOM      5  CA  ALA A   3      19.341  11.375  -6.146  1.00  0.00     0.168 C 
ATOM      6  CB  ALA A   3      20.180  12.246  -5.221  1.00  0.00     0.041 C 
BRANCH   5   7
ATOM      7  N   ALA A   3      18.095  11.060  -5.495  1.00  0.00    -0.343 N 
ATOM      8  C   TYR A   2      16.888  11.752  -5.773  1.00  0.00     0.243 C 
ATOM      9  O   TYR A   2      16.899  12.792  -6.488  1.00  0.00    -0.273 OA
ATOM     10  H   UNL     1      18.188  10.558  -4.585  1.00  0.00     0.164 HD
BRANCH   8  11
ATOM     11  CA  TYR A   2      15.653  11.315  -5.059  1.00  0.00     0.175 C 
BRANCH  11  12
ATOM     12  N   TYR A   2      14.455  11.741  -5.768  1.00  0.00    -0.343 N 
ATOM     13  C   SER A   1      13.915  13.051  -5.637  1.00  0.00     0.239 C 
ATOM     14  O   SER A   1      14.444  13.870  -4.836  1.00  0.00    -0.273 OA
ATOM     15  H   UNL     1      13.866  11.000  -6.209  1.00  0.00     0.164 HD
BRANCH  13  16
ATOM     16  CA  SER A   1      12.662  13.410  -6.389  1.00  0.00     0.167 C 
BRANCH  16  17
ATOM     17  N   SER A   1      12.471  14.862  -6.376  1.00  0.00    -0.318 NA
ATOM     18  H   UNL     1      13.202  15.317  -6.972  1.00  0.00     0.119 HD
ATOM     19  H   UNL     1      11.539  15.087  -6.794  1.00  0.00     0.119 HD
ENDBRANCH  16  17
BRANCH  16  20
ATOM     20  CB  SER A   1      12.687  12.878  -7.844  1.00  0.00     0.184 C 
BRANCH  20  21
ATOM     21  OG  SER A   1      11.437  13.047  -8.451  1.00  0.00    -0.394 OA
ATOM     22  H   UNL     1      10.831  12.368  -8.054  1.00  0.00     0.210 HD
ENDBRANCH  20  21
ENDBRANCH  16  20
ENDBRANCH  13  16
ENDBRANCH  11  12
BRANCH  11  23
ATOM     23  CB  TYR A   2      15.619   9.776  -4.891  1.00  0.00     0.070 C 
BRANCH  23  24
ATOM     24  CG  TYR A   2      14.450   9.289  -4.088  1.00  0.00    -0.045 A 
ATOM     25  CD1 TYR A   2      13.907  10.047  -3.033  1.00  0.00     0.007 A 
ATOM     26  CD2 TYR A   2      13.972   7.991  -4.310  1.00  0.00     0.007 A 
ATOM     27  CE1 TYR A   2      12.871   9.537  -2.261  1.00  0.00     0.046 A 
ATOM     28  CE2 TYR A   2      12.942   7.478  -3.523  1.00  0.00     0.046 A 
ATOM     29  CZ  TYR A   2      12.385   8.251  -2.502  1.00  0.00     0.115 A 
BRANCH  29  30
ATOM     30  OH  TYR A   2      11.352   7.726  -1.729  1.00  0.00    -0.508 OA
ATOM     31  H   UNL     1      10.927   8.260  -0.979  1.00  0.00     0.293 HD
ENDBRANCH  29  30
ENDBRANCH  23  24
ENDBRANCH  11  23
ENDBRANCH   8  11
ENDBRANCH   5   7
ENDBRANCH   1   5
BRANCH   3  32
ATOM     32  CA  LEU A   4      21.346   8.759  -8.136  1.00  0.00     0.171 C 
BRANCH  32  33
ATOM     33  C   LEU A   4      22.712   9.216  -8.518  1.00  0.00     0.243 C 
ATOM     34  N   ARG A   5      23.822   8.720  -7.784  1.00  0.00    -0.343 N 
ATOM     35  O   LEU A   4      22.875  10.032  -9.466  1.00  0.00    -0.273 OA
ATOM     36  H   UNL     1      23.667   8.029  -7.015  1.00  0.00     0.164 HD
BRANCH  34  37
ATOM     37  CA  ARG A   5      25.185   9.122  -8.073  1.00  0.00     0.171 C 
BRANCH  37  38
ATOM     38  C   ARG A   5      25.899   7.968  -8.686  1.00  0.00     0.243 C 
ATOM     39  N   ASN A   6      25.913   7.864 -10.102  1.00  0.00    -0.341 N 
ATOM     40  O   ARG A   5      26.447   7.087  -7.969  1.00  0.00    -0.273 OA
ATOM     41  H   UNL     1      25.489   8.647 -10.651  1.00  0.00     0.164 HD
BRANCH  39  42
ATOM     42  CA  ASN A   6      26.542   6.751 -10.804  1.00  0.00     0.201 C 
BRANCH  42  43
ATOM     43  C   ASN A   6      27.993   6.642 -10.416  1.00  0.00     0.326 C 
ATOM     44  O   ASN A   6      28.794   7.579 -10.677  1.00  0.00    -0.250 OA
BRANCH  43  45
ATOM     45  OXT ASN A   6      28.451   5.499  -9.768  1.00  0.00    -0.480 OA
ATOM     46  H   UNL     1      29.424   5.409  -9.499  1.00  0.00     0.296 HD
ENDBRANCH  43  45
ENDBRANCH  42  43
BRANCH  42  47
ATOM     47  CB  ASN A   6      26.424   6.946 -12.323  1.00  0.00     0.136 C 
BRANCH  47  48
ATOM     48  CG  ASN A   6      25.010   7.180 -12.773  1.00  0.00     0.220 C 
ATOM     49  ND2 ASN A   6      24.753   8.090 -13.833  1.00  0.00    -0.370 N 
ATOM     50  OD1 ASN A   6      24.053   6.558 -12.243  1.00  0.00    -0.275 OA
ATOM     51  H   UNL     1      25.533   8.600 -14.306  1.00  0.00     0.159 HD
ATOM     52  H   UNL     1      23.775   8.258 -14.156  1.00  0.00     0.159 HD
ENDBRANCH  47  48
ENDBRANCH  42  47
ENDBRANCH  39  42
ENDBRANCH  37  38
BRANCH  37  53
ATOM     53  CB  ARG A   5      25.863   9.605  -6.796  1.00  0.00     0.037 C 
BRANCH  53  54
ATOM     54  CG  ARG A   5      25.167  10.861  -6.272  1.00  0.00     0.024 C 
BRANCH  54  55
ATOM     55  CD  ARG A   5      25.842  11.391  -5.015  1.00  0.00     0.116 C 
BRANCH  55  56
ATOM     56  NE  ARG A   5      25.378  10.685  -3.823  1.00  0.00    -0.357 N 
ATOM     57  CZ  ARG A   5      25.469  11.279  -2.527  1.00  0.00     0.185 C 
ATOM     58  NH2 ARG A   5      26.106  12.541  -2.350  1.00  0.00    -0.370 N 
ATOM     59  H   UNL     1      24.904   9.757  -3.922  1.00  0.00     0.163 HD
ATOM     60  H   UNL     1      26.693  12.983  -3.090  1.00  0.00     0.159 HD
ATOM     61  H   UNL     1      26.084  13.006  -1.415  1.00  0.00     0.159 HD
BRANCH  57  62
ATOM     62  NH1 ARG A   5      24.959  10.678  -1.500  1.00  0.00    -0.270 NA
ATOM     63  H   UNL     1      24.478   9.755  -1.583  1.00  0.00     0.191 HD
ENDBRANCH  57  62
ENDBRANCH  55  56
ENDBRANCH  54  55
ENDBRANCH  53  54
ENDBRANCH  37  53
ENDBRANCH  34  37
ENDBRANCH  32  33
BRANCH  32  64
ATOM     64  CB  LEU A   4      20.654   7.998  -9.270  1.00  0.00     0.038 C 
BRANCH  64  65
ATOM     65  CG  LEU A   4      21.448   6.771  -9.768  1.00  0.00    -0.015 C 
ATOM     66  CD1 LEU A   4      21.762   5.778  -8.639  1.00  0.00     0.007 C 
ATOM     67  CD2 LEU A   4      20.662   6.067 -10.877  1.00  0.00     0.007 C 
ENDBRANCH  64  65
ENDBRANCH  32  64
ENDBRANCH   3  32
TORSDOF 27
