REMARK SMILES CC(C)C[C@H](NC(=O)[C@H](Cc1ccccc1)NC(=O)[C@@H](N)CO)C(=O)N[C@@H](CCC(N)=O)C(=O)N[C@@H](CCCNC(=N)N)C(=O)NCC(=O)O
REMARK SMILES IDX 24 1 25 2 26 3 5 5 6 6 7 7 8 8 9 10 17 11 18 12 19 13 20 15
REMARK SMILES IDX 21 16 22 19 23 20 10 22 11 23 12 24 16 25 13 26 15 27 14 28
REMARK SMILES IDX 4 29 2 30 1 31 3 32 27 33 33 34 35 35 34 36 36 38 44 39
REMARK SMILES IDX 46 40 45 41 47 43 48 44 49 45 50 46 37 48 38 49 39 50 40 51
REMARK SMILES IDX 41 52 43 53 42 57 28 59 29 60 30 61 31 62 32 63
REMARK H PARENT 26 4 6 9 17 14 21 17 21 18 23 21 35 37 46 42 50 47 40 54 43 55
REMARK H PARENT 43 56 42 58 31 64 31 65
ROOT
ATOM      1  C   LEU A   3      20.052  10.085  -6.477  1.00  0.00     0.243 C 
ATOM      2  O   LEU A   3      20.163   9.161  -5.624  1.00  0.00    -0.273 OA
ATOM      3  N   GLN A   4      20.566   9.917  -7.786  1.00  0.00    -0.343 N 
ATOM      4  H   UNL     1      20.399  10.656  -8.507  1.00  0.00     0.164 HD
ENDROOT
BRANCH   1   5
ATOM      5  CA  LEU A   3      19.340  11.354  -6.146  1.00  0.00     0.171 C 
BRANCH   5   6
ATOM      6  N   LEU A   3      18.082  11.021  -5.537  1.00  0.00    -0.343 N 
ATOM      7  C   PHE A   2      16.886  11.745  -5.776  1.00  0.00     0.243 C 
ATOM      8  O   PHE A   2      16.904  12.796  -6.475  1.00  0.00    -0.273 OA
ATOM      9  H   UNL     1      18.155  10.388  -4.717  1.00  0.00     0.164 HD
BRANCH   7  10
ATOM     10  CA  PHE A   2      15.651  11.313  -5.057  1.00  0.00     0.175 C 
BRANCH  10  11
ATOM     11  N   PHE A   2      14.453  11.739  -5.769  1.00  0.00    -0.343 N 
ATOM     12  C   SER A   1      13.914  13.049  -5.636  1.00  0.00     0.239 C 
ATOM     13  O   SER A   1      14.449  13.868  -4.838  1.00  0.00    -0.273 OA
ATOM     14  H   UNL     1      13.868  10.999  -6.213  1.00  0.00     0.164 HD
BRANCH  12  15
ATOM     15  CA  SER A   1      12.654  13.411  -6.385  1.00  0.00     0.167 C 
BRANCH  15  16
ATOM     16  N   SER A   1      12.468  14.864  -6.382  1.00  0.00    -0.318 NA
ATOM     17  H   UNL     1      11.565  15.088  -6.857  1.00  0.00     0.119 HD
ATOM     18  H   UNL     1      12.337  15.179  -5.393  1.00  0.00     0.119 HD
ENDBRANCH  15  16
BRANCH  15  19
ATOM     19  CB  SER A   1      12.696  12.894  -7.842  1.00  0.00     0.184 C 
BRANCH  19  20
ATOM     20  OG  SER A   1      11.440  13.036  -8.447  1.00  0.00    -0.394 OA
ATOM     21  H   UNL     1      11.454  13.890  -8.953  1.00  0.00     0.210 HD
ENDBRANCH  19  20
ENDBRANCH  15  19
ENDBRANCH  12  15
ENDBRANCH  10  11
BRANCH  10  22
ATOM     22  CB  PHE A   2      15.609   9.773  -4.881  1.00  0.00     0.070 C 
BRANCH  22  23
ATOM     23  CG  PHE A   2      14.435   9.292  -4.092  1.00  0.00    -0.045 A 
ATOM     24  CD1 PHE A   2      13.898  10.048  -3.033  1.00  0.00     0.004 A 
ATOM     25  CD2 PHE A   2      13.964   7.991  -4.310  1.00  0.00     0.004 A 
ATOM     26  CE1 PHE A   2      12.866   9.535  -2.258  1.00  0.00     0.000 A 
ATOM     27  CE2 PHE A   2      12.937   7.476  -3.520  1.00  0.00     0.000 A 
ATOM     28  CZ  PHE A   2      12.384   8.251  -2.500  1.00  0.00     0.000 A 
ENDBRANCH  22  23
ENDBRANCH  10  22
ENDBRANCH   7  10
ENDBRANCH   5   6
BRANCH   5  29
ATOM     29  CB  LEU A   3      20.164  12.253  -5.215  1.00  0.00     0.038 C 
BRANCH  29  30
ATOM     30  CG  LEU A   3      20.417  11.679  -3.791  1.00  0.00    -0.015 C 
ATOM     31  CD1 LEU A   3      21.819  12.066  -3.316  1.00  0.00     0.007 C 
ATOM     32  CD2 LEU A   3      19.369  12.170  -2.780  1.00  0.00     0.007 C 
ENDBRANCH  29  30
ENDBRANCH   5  29
ENDBRANCH   1   5
BRANCH   3  33
ATOM     33  CA  GLN A   4      21.350   8.755  -8.152  1.00  0.00     0.171 C 
BRANCH  33  34
ATOM     34  C   GLN A   4      22.714   9.213  -8.529  1.00  0.00     0.243 C 
ATOM     35  N   ARG A   5      23.823   8.713  -7.798  1.00  0.00    -0.343 N 
ATOM     36  O   GLN A   4      22.877  10.037  -9.470  1.00  0.00    -0.273 OA
ATOM     37  H   UNL     1      23.670   7.996  -7.052  1.00  0.00     0.164 HD
BRANCH  35  38
ATOM     38  CA  ARG A   5      25.186   9.118  -8.087  1.00  0.00     0.171 C 
BRANCH  38  39
ATOM     39  C   ARG A   5      25.901   7.962  -8.698  1.00  0.00     0.243 C 
ATOM     40  N   GLY A   6      25.893   7.824 -10.117  1.00  0.00    -0.343 N 
ATOM     41  O   ARG A   5      26.457   7.093  -7.973  1.00  0.00    -0.273 OA
ATOM     42  H   UNL     1      25.398   8.536 -10.701  1.00  0.00     0.164 HD
BRANCH  40  43
ATOM     43  CA  GLY A   6      26.552   6.716 -10.794  1.00  0.00     0.238 C 
BRANCH  43  44
ATOM     44  C   GLY A   6      28.001   6.644 -10.414  1.00  0.00     0.322 C 
ATOM     45  O   GLY A   6      28.782   7.587 -10.704  1.00  0.00    -0.250 OA
BRANCH  44  46
ATOM     46  OXT GLY A   6      28.483   5.528  -9.738  1.00  0.00    -0.480 OA
ATOM     47  H   UNL     1      29.458   5.463  -9.472  1.00  0.00     0.296 HD
ENDBRANCH  44  46
ENDBRANCH  43  44
ENDBRANCH  40  43
ENDBRANCH  38  39
BRANCH  38  48
ATOM     48  CB  ARG A   5      25.861   9.603  -6.805  1.00  0.00     0.037 C 
BRANCH  48  49
ATOM     49  CG  ARG A   5      25.163  10.855  -6.274  1.00  0.00     0.024 C 
BRANCH  49  50
ATOM     50  CD  ARG A   5      25.839  11.388  -5.017  1.00  0.00     0.116 C 
BRANCH  50  51
ATOM     51  NE  ARG A   5      25.377  10.685  -3.822  1.00  0.00    -0.357 N 
ATOM     52  CZ  ARG A   5      25.469  11.281  -2.528  1.00  0.00     0.185 C 
ATOM     53  NH2 ARG A   5      26.107  12.546  -2.354  1.00  0.00    -0.370 N 
ATOM     54  H   UNL     1      24.895   9.761  -3.913  1.00  0.00     0.163 HD
ATOM     55  H   UNL     1      26.080  13.023  -1.426  1.00  0.00     0.159 HD
ATOM     56  H   UNL     1      26.695  12.982  -3.096  1.00  0.00     0.159 HD
BRANCH  52  57
ATOM     57  NH1 ARG A   5      24.955  10.672  -1.508  1.00  0.00    -0.270 NA
ATOM     58  H   UNL     1      24.996  11.077  -0.546  1.00  0.00     0.191 HD
ENDBRANCH  52  57
ENDBRANCH  50  51
ENDBRANCH  49  50
ENDBRANCH  48  49
ENDBRANCH  38  48
ENDBRANCH  35  38
ENDBRANCH  33  34
BRANCH  33  59
ATOM     59  CB  GLN A   4      20.659   7.993  -9.287  1.00  0.00     0.045 C 
BRANCH  59  60
ATOM     60  CG  GLN A   4      21.452   6.765  -9.764  1.00  0.00     0.102 C 
BRANCH  60  61
ATOM     61  CD  GLN A   4      21.756   5.806  -8.645  1.00  0.00     0.217 C 
ATOM     62  NE2 GLN A   4      23.104   5.444  -8.345  1.00  0.00    -0.370 N 
ATOM     63  OE1 GLN A   4      20.813   5.300  -7.981  1.00  0.00    -0.275 OA
ATOM     64  H   UNL     1      23.898   5.822  -8.907  1.00  0.00     0.159 HD
ATOM     65  H   UNL     1      23.310   4.787  -7.560  1.00  0.00     0.159 HD
ENDBRANCH  60  61
ENDBRANCH  59  60
ENDBRANCH  33  59
ENDBRANCH   3  33
TORSDOF 27
