REMARK SMILES CC(C)C[C@H](NC(=O)[C@H](CCC(=O)O)NC(=O)[C@H](C)NC(=O)[C@@H](N)CO)C(=O)N[C@@H](CCCNC(=N)N)C(=O)N[C@@H](CC(N)=O)C(=O)O
REMARK SMILES IDX 7 1 8 2 6 3 9 5 15 6 16 7 17 8 18 10 19 11 20 12 21 13 22 14
REMARK SMILES IDX 23 16 24 17 25 20 26 21 10 23 11 24 12 25 13 26 14 27 5 29
REMARK SMILES IDX 27 30 29 31 28 32 30 34 38 35 40 36 39 37 41 39 46 40 47 41
REMARK SMILES IDX 48 42 42 44 43 45 44 46 45 47 31 50 32 51 33 52 34 53 35 54
REMARK SMILES IDX 37 55 36 59 4 61 2 62 1 63 3 64
REMARK H PARENT 6 4 15 9 20 15 24 18 24 19 26 22 14 28 29 33 40 38 48 43 44 48
REMARK H PARENT 44 49 34 56 37 57 37 58 36 60
ROOT
ATOM      1  C   GLU A   3      20.035  10.080  -6.466  1.00  0.00     0.243 C 
ATOM      2  O   GLU A   3      20.156   9.158  -5.613  1.00  0.00    -0.273 OA
ATOM      3  N   LEU A   4      20.565   9.924  -7.773  1.00  0.00    -0.343 N 
ATOM      4  H   UNL     1      20.403  10.668  -8.490  1.00  0.00     0.164 HD
ENDROOT
BRANCH   1   5
ATOM      5  CA  GLU A   3      19.318  11.345  -6.129  1.00  0.00     0.172 C 
BRANCH   5   6
ATOM      6  N   GLU A   3      18.063  11.018  -5.493  1.00  0.00    -0.343 N 
ATOM      7  C   ALA A   2      16.869  11.747  -5.733  1.00  0.00     0.242 C 
ATOM      8  O   ALA A   2      16.891  12.789  -6.446  1.00  0.00    -0.273 OA
ATOM      9  H   UNL     1      18.102  10.370  -4.676  1.00  0.00     0.164 HD
BRANCH   7  10
ATOM     10  CA  ALA A   2      15.614  11.295  -5.039  1.00  0.00     0.168 C 
ATOM     11  CB  ALA A   2      15.565   9.763  -4.905  1.00  0.00     0.041 C 
BRANCH  10  12
ATOM     12  N   ALA A   2      14.437  11.733  -5.767  1.00  0.00    -0.343 N 
ATOM     13  C   SER A   1      13.910  13.049  -5.639  1.00  0.00     0.239 C 
ATOM     14  O   SER A   1      14.444  13.866  -4.839  1.00  0.00    -0.273 OA
ATOM     15  H   UNL     1      13.848  11.001  -6.221  1.00  0.00     0.164 HD
BRANCH  13  16
ATOM     16  CA  SER A   1      12.659  13.414  -6.392  1.00  0.00     0.167 C 
BRANCH  16  17
ATOM     17  N   SER A   1      12.472  14.866  -6.376  1.00  0.00    -0.318 NA
ATOM     18  H   UNL     1      13.206  15.321  -6.967  1.00  0.00     0.119 HD
ATOM     19  H   UNL     1      11.542  15.093  -6.797  1.00  0.00     0.119 HD
ENDBRANCH  16  17
BRANCH  16  20
ATOM     20  CB  SER A   1      12.686  12.885  -7.849  1.00  0.00     0.184 C 
BRANCH  20  21
ATOM     21  OG  SER A   1      11.434  13.048  -8.453  1.00  0.00    -0.394 OA
ATOM     22  H   UNL     1      10.834  12.362  -8.059  1.00  0.00     0.210 HD
ENDBRANCH  20  21
ENDBRANCH  16  20
ENDBRANCH  13  16
ENDBRANCH  10  12
ENDBRANCH   7  10
ENDBRANCH   5   6
BRANCH   5  23
ATOM     23  CB  GLU A   3      20.160  12.249  -5.224  1.00  0.00     0.047 C 
BRANCH  23  24
ATOM     24  CG  GLU A   3      20.407  11.693  -3.803  1.00  0.00     0.125 C 
BRANCH  24  25
ATOM     25  CD  GLU A   3      21.761  12.089  -3.315  1.00  0.00     0.303 C 
ATOM     26  OE1 GLU A   3      22.785  11.664  -3.907  1.00  0.00    -0.252 OA
BRANCH  25  27
ATOM     27  OE2 GLU A   3      21.891  12.930  -2.215  1.00  0.00    -0.481 OA
ATOM     28  H   UNL     1      22.806  13.204  -1.876  1.00  0.00     0.296 HD
ENDBRANCH  25  27
ENDBRANCH  24  25
ENDBRANCH  23  24
ENDBRANCH   5  23
ENDBRANCH   1   5
BRANCH   3  29
ATOM     29  CA  LEU A   4      21.349   8.762  -8.142  1.00  0.00     0.171 C 
BRANCH  29  30
ATOM     30  C   LEU A   4      22.714   9.217  -8.522  1.00  0.00     0.243 C 
ATOM     31  N   ARG A   5      23.823   8.721  -7.785  1.00  0.00    -0.343 N 
ATOM     32  O   LEU A   4      22.878  10.033  -9.469  1.00  0.00    -0.273 OA
ATOM     33  H   UNL     1      23.667   8.032  -7.015  1.00  0.00     0.164 HD
BRANCH  31  34
ATOM     34  CA  ARG A   5      25.186   9.122  -8.073  1.00  0.00     0.171 C 
BRANCH  34  35
ATOM     35  C   ARG A   5      25.900   7.968  -8.686  1.00  0.00     0.243 C 
ATOM     36  N   ASN A   6      25.913   7.864 -10.103  1.00  0.00    -0.341 N 
ATOM     37  O   ARG A   5      26.447   7.086  -7.970  1.00  0.00    -0.273 OA
ATOM     38  H   UNL     1      25.489   8.647 -10.651  1.00  0.00     0.164 HD
BRANCH  36  39
ATOM     39  CA  ASN A   6      26.542   6.751 -10.804  1.00  0.00     0.201 C 
BRANCH  39  40
ATOM     40  C   ASN A   6      27.993   6.642 -10.416  1.00  0.00     0.326 C 
ATOM     41  O   ASN A   6      28.794   7.579 -10.677  1.00  0.00    -0.250 OA
BRANCH  40  42
ATOM     42  OXT ASN A   6      28.451   5.499  -9.769  1.00  0.00    -0.480 OA
ATOM     43  H   UNL     1      29.424   5.409  -9.500  1.00  0.00     0.296 HD
ENDBRANCH  40  42
ENDBRANCH  39  40
BRANCH  39  44
ATOM     44  CB  ASN A   6      26.424   6.946 -12.323  1.00  0.00     0.136 C 
BRANCH  44  45
ATOM     45  CG  ASN A   6      25.010   7.180 -12.773  1.00  0.00     0.220 C 
ATOM     46  ND2 ASN A   6      24.753   8.090 -13.833  1.00  0.00    -0.370 N 
ATOM     47  OD1 ASN A   6      24.053   6.558 -12.243  1.00  0.00    -0.275 OA
ATOM     48  H   UNL     1      25.533   8.600 -14.306  1.00  0.00     0.159 HD
ATOM     49  H   UNL     1      23.774   8.258 -14.156  1.00  0.00     0.159 HD
ENDBRANCH  44  45
ENDBRANCH  39  44
ENDBRANCH  36  39
ENDBRANCH  34  35
BRANCH  34  50
ATOM     50  CB  ARG A   5      25.866   9.604  -6.796  1.00  0.00     0.037 C 
BRANCH  50  51
ATOM     51  CG  ARG A   5      25.168  10.856  -6.267  1.00  0.00     0.024 C 
BRANCH  51  52
ATOM     52  CD  ARG A   5      25.849  11.390  -5.014  1.00  0.00     0.116 C 
BRANCH  52  53
ATOM     53  NE  ARG A   5      25.410  10.675  -3.818  1.00  0.00    -0.357 N 
ATOM     54  CZ  ARG A   5      25.481  11.277  -2.526  1.00  0.00     0.185 C 
ATOM     55  NH2 ARG A   5      26.106  12.549  -2.351  1.00  0.00    -0.370 N 
ATOM     56  H   UNL     1      24.956   9.737  -3.907  1.00  0.00     0.163 HD
ATOM     57  H   UNL     1      26.704  12.982  -3.087  1.00  0.00     0.159 HD
ATOM     58  H   UNL     1      26.059  13.034  -1.428  1.00  0.00     0.159 HD
BRANCH  54  59
ATOM     59  NH1 ARG A   5      24.958  10.670  -1.509  1.00  0.00    -0.270 NA
ATOM     60  H   UNL     1      24.983  11.082  -0.549  1.00  0.00     0.191 HD
ENDBRANCH  54  59
ENDBRANCH  52  53
ENDBRANCH  51  52
ENDBRANCH  50  51
ENDBRANCH  34  50
ENDBRANCH  31  34
ENDBRANCH  29  30
BRANCH  29  61
ATOM     61  CB  LEU A   4      20.655   8.001  -9.273  1.00  0.00     0.038 C 
BRANCH  61  62
ATOM     62  CG  LEU A   4      21.448   6.771  -9.769  1.00  0.00    -0.015 C 
ATOM     63  CD1 LEU A   4      21.762   5.779  -8.639  1.00  0.00     0.007 C 
ATOM     64  CD2 LEU A   4      20.661   6.067 -10.877  1.00  0.00     0.007 C 
ENDBRANCH  61  62
ENDBRANCH  29  61
ENDBRANCH   3  29
TORSDOF 28
