REMARK SMILES CC(C)C[C@H](NC(=O)[C@H](C)NC(=O)[C@H](Cc1ccccc1)NC(=O)[C@@H](N)CO)C(=O)N[C@@H](CCCNC(=N)N)C(=O)N[C@@H](CO)C(=O)O
REMARK SMILES IDX 7 1 8 2 6 3 9 5 10 6 11 7 12 8 13 9 14 11 22 12 23 13 24 14
REMARK SMILES IDX 25 16 26 17 27 20 28 21 15 23 16 24 17 25 21 26 18 27 20 28
REMARK SMILES IDX 19 29 5 30 29 31 31 32 30 33 32 35 40 36 42 37 41 38 43 40
REMARK SMILES IDX 46 41 47 42 48 43 44 45 45 46 33 48 34 49 35 50 36 51 37 52
REMARK SMILES IDX 39 53 38 57 4 59 2 60 1 61 3 62
REMARK H PARENT 6 4 11 10 22 15 26 18 26 19 28 22 31 34 42 39 48 44 45 47
REMARK H PARENT 36 54 39 55 39 56 38 58
ROOT
ATOM      1  C   ALA A   3      20.046  10.101  -6.462  1.00  0.00     0.242 C 
ATOM      2  O   ALA A   3      20.175   9.200  -5.586  1.00  0.00    -0.273 OA
ATOM      3  N   LEU A   4      20.560   9.920  -7.772  1.00  0.00    -0.343 N 
ATOM      4  H   UNL     1      20.391  10.654  -8.498  1.00  0.00     0.164 HD
ENDROOT
BRANCH   1   5
ATOM      5  CA  ALA A   3      19.341  11.374  -6.146  1.00  0.00     0.168 C 
ATOM      6  CB  ALA A   3      20.180  12.246  -5.221  1.00  0.00     0.041 C 
BRANCH   5   7
ATOM      7  N   ALA A   3      18.096  11.059  -5.495  1.00  0.00    -0.343 N 
ATOM      8  C   PHE A   2      16.889  11.751  -5.773  1.00  0.00     0.243 C 
ATOM      9  O   PHE A   2      16.900  12.792  -6.487  1.00  0.00    -0.273 OA
ATOM     10  H   UNL     1      18.189  10.557  -4.585  1.00  0.00     0.164 HD
BRANCH   8  11
ATOM     11  CA  PHE A   2      15.654  11.314  -5.059  1.00  0.00     0.175 C 
BRANCH  11  12
ATOM     12  N   PHE A   2      14.456  11.739  -5.769  1.00  0.00    -0.343 N 
ATOM     13  C   SER A   1      13.917  13.048  -5.633  1.00  0.00     0.239 C 
ATOM     14  O   SER A   1      14.448  13.866  -4.831  1.00  0.00    -0.273 OA
ATOM     15  H   UNL     1      13.872  11.000  -6.216  1.00  0.00     0.164 HD
BRANCH  13  16
ATOM     16  CA  SER A   1      12.661  13.412  -6.387  1.00  0.00     0.167 C 
BRANCH  16  17
ATOM     17  N   SER A   1      12.457  14.862  -6.398  1.00  0.00    -0.318 NA
ATOM     18  H   UNL     1      13.318  15.336  -6.758  1.00  0.00     0.119 HD
ATOM     19  H   UNL     1      12.292  15.192  -5.419  1.00  0.00     0.119 HD
ENDBRANCH  16  17
BRANCH  16  20
ATOM     20  CB  SER A   1      12.690  12.888  -7.841  1.00  0.00     0.184 C 
BRANCH  20  21
ATOM     21  OG  SER A   1      11.437  13.050  -8.444  1.00  0.00    -0.394 OA
ATOM     22  H   UNL     1      11.386  13.992  -8.750  1.00  0.00     0.210 HD
ENDBRANCH  20  21
ENDBRANCH  16  20
ENDBRANCH  13  16
ENDBRANCH  11  12
BRANCH  11  23
ATOM     23  CB  PHE A   2      15.619   9.775  -4.891  1.00  0.00     0.070 C 
BRANCH  23  24
ATOM     24  CG  PHE A   2      14.450   9.289  -4.089  1.00  0.00    -0.045 A 
ATOM     25  CD1 PHE A   2      13.906  10.047  -3.033  1.00  0.00     0.004 A 
ATOM     26  CD2 PHE A   2      13.972   7.990  -4.310  1.00  0.00     0.004 A 
ATOM     27  CE1 PHE A   2      12.870   9.536  -2.261  1.00  0.00     0.000 A 
ATOM     28  CE2 PHE A   2      12.941   7.478  -3.522  1.00  0.00     0.000 A 
ATOM     29  CZ  PHE A   2      12.387   8.253  -2.503  1.00  0.00     0.000 A 
ENDBRANCH  23  24
ENDBRANCH  11  23
ENDBRANCH   8  11
ENDBRANCH   5   7
ENDBRANCH   1   5
BRANCH   3  30
ATOM     30  CA  LEU A   4      21.347   8.759  -8.137  1.00  0.00     0.171 C 
BRANCH  30  31
ATOM     31  C   LEU A   4      22.712   9.216  -8.519  1.00  0.00     0.243 C 
ATOM     32  N   ARG A   5      23.822   8.720  -7.787  1.00  0.00    -0.343 N 
ATOM     33  O   LEU A   4      22.875  10.033  -9.466  1.00  0.00    -0.273 OA
ATOM     34  H   UNL     1      23.668   8.030  -7.016  1.00  0.00     0.164 HD
BRANCH  32  35
ATOM     35  CA  ARG A   5      25.186   9.120  -8.078  1.00  0.00     0.171 C 
BRANCH  35  36
ATOM     36  C   ARG A   5      25.897   7.963  -8.692  1.00  0.00     0.243 C 
ATOM     37  N   SER A   6      25.880   7.839 -10.110  1.00  0.00    -0.339 N 
ATOM     38  O   ARG A   5      26.457   7.091  -7.975  1.00  0.00    -0.273 OA
ATOM     39  H   UNL     1      25.339   8.547 -10.657  1.00  0.00     0.164 HD
BRANCH  37  40
ATOM     40  CA  SER A   6      26.546   6.750 -10.817  1.00  0.00     0.218 C 
BRANCH  40  41
ATOM     41  C   SER A   6      27.995   6.652 -10.416  1.00  0.00     0.328 C 
ATOM     42  O   SER A   6      28.796   7.588 -10.678  1.00  0.00    -0.250 OA
BRANCH  41  43
ATOM     43  OXT SER A   6      28.453   5.516  -9.755  1.00  0.00    -0.480 OA
ATOM     44  H   UNL     1      29.423   5.433  -9.477  1.00  0.00     0.296 HD
ENDBRANCH  41  43
ENDBRANCH  40  41
BRANCH  40  45
ATOM     45  CB  SER A   6      26.411   6.949 -12.332  1.00  0.00     0.193 C 
BRANCH  45  46
ATOM     46  OG  SER A   6      26.953   8.181 -12.726  1.00  0.00    -0.394 OA
ATOM     47  H   UNL     1      26.827   8.235 -13.709  1.00  0.00     0.210 HD
ENDBRANCH  45  46
ENDBRANCH  40  45
ENDBRANCH  37  40
ENDBRANCH  35  36
BRANCH  35  48
ATOM     48  CB  ARG A   5      25.864   9.604  -6.800  1.00  0.00     0.037 C 
BRANCH  48  49
ATOM     49  CG  ARG A   5      25.167  10.858  -6.272  1.00  0.00     0.024 C 
BRANCH  49  50
ATOM     50  CD  ARG A   5      25.842  11.389  -5.015  1.00  0.00     0.116 C 
BRANCH  50  51
ATOM     51  NE  ARG A   5      25.378  10.686  -3.821  1.00  0.00    -0.357 N 
ATOM     52  CZ  ARG A   5      25.470  11.281  -2.527  1.00  0.00     0.185 C 
ATOM     53  NH2 ARG A   5      26.109  12.546  -2.352  1.00  0.00    -0.370 N 
ATOM     54  H   UNL     1      24.899   9.761  -3.912  1.00  0.00     0.163 HD
ATOM     55  H   UNL     1      26.699  12.981  -3.094  1.00  0.00     0.159 HD
ATOM     56  H   UNL     1      26.084  13.022  -1.423  1.00  0.00     0.159 HD
BRANCH  52  57
ATOM     57  NH1 ARG A   5      24.956  10.671  -1.507  1.00  0.00    -0.270 NA
ATOM     58  H   UNL     1      24.999  11.075  -0.545  1.00  0.00     0.191 HD
ENDBRANCH  52  57
ENDBRANCH  50  51
ENDBRANCH  49  50
ENDBRANCH  48  49
ENDBRANCH  35  48
ENDBRANCH  32  35
ENDBRANCH  30  31
BRANCH  30  59
ATOM     59  CB  LEU A   4      20.656   7.998  -9.271  1.00  0.00     0.038 C 
BRANCH  59  60
ATOM     60  CG  LEU A   4      21.449   6.770  -9.770  1.00  0.00    -0.015 C 
ATOM     61  CD1 LEU A   4      21.764   5.778  -8.639  1.00  0.00     0.007 C 
ATOM     62  CD2 LEU A   4      20.660   6.066 -10.876  1.00  0.00     0.007 C 
ENDBRANCH  59  60
ENDBRANCH  30  59
ENDBRANCH   3  30
TORSDOF 26
