REMARK SMILES CC(C)C[C@H](NC(=O)[C@H](Cc1ccccc1)NC(=O)CN)C(=O)N[C@@H](C)C(=O)N[C@@H](CCCNC(=N)N)C(=O)N[C@@H](CC(N)=O)C(=O)O
REMARK SMILES IDX 25 1 26 2 24 3 22 4 23 5 5 7 6 8 7 9 8 10 9 12 17 13 18 14
REMARK SMILES IDX 19 15 20 17 21 18 10 21 11 22 12 23 16 24 13 25 15 26 14 27
REMARK SMILES IDX 4 28 2 29 1 30 3 31 27 32 29 33 28 34 30 36 38 37 40 38
REMARK SMILES IDX 39 39 41 41 46 42 47 43 48 44 42 46 43 47 44 48 45 49 31 52
REMARK SMILES IDX 32 53 33 54 34 55 35 56 37 57 36 61
REMARK H PARENT 24 6 6 11 17 16 21 19 21 20 29 35 40 40 48 45 44 50 44 51
REMARK H PARENT 34 58 37 59 37 60 36 62
ROOT
ATOM      1  CA  ALA A   4      -0.847   0.307  -0.061  1.00  0.00     0.168 C 
ATOM      2  CB  ALA A   4      -0.658   1.460   0.928  1.00  0.00     0.041 C 
ENDROOT
BRANCH   1   3
ATOM      3  N   ALA A   4       0.322   0.241  -0.944  1.00  0.00    -0.343 N 
ATOM      4  C   LEU A   3       1.432  -0.636  -0.694  1.00  0.00     0.243 C 
ATOM      5  O   LEU A   3       1.304  -1.614   0.092  1.00  0.00    -0.273 OA
ATOM      6  H   UNL     1       0.451   1.003  -1.649  1.00  0.00     0.164 HD
BRANCH   4   7
ATOM      7  CA  LEU A   3       2.734  -0.418  -1.420  1.00  0.00     0.171 C 
BRANCH   7   8
ATOM      8  N   LEU A   3       3.856  -0.853  -0.581  1.00  0.00    -0.343 N 
ATOM      9  C   PHE A   2       4.374  -0.041   0.481  1.00  0.00     0.243 C 
ATOM     10  O   PHE A   2       3.799   1.040   0.794  1.00  0.00    -0.273 OA
ATOM     11  H   UNL     1       4.275  -1.799  -0.734  1.00  0.00     0.164 HD
BRANCH   9  12
ATOM     12  CA  PHE A   2       5.592  -0.487   1.241  1.00  0.00     0.175 C 
BRANCH  12  13
ATOM     13  N   PHE A   2       6.457   0.666   1.518  1.00  0.00    -0.343 N 
ATOM     14  C   GLY A   1       7.243   1.290   0.493  1.00  0.00     0.234 C 
ATOM     15  O   GLY A   1       7.197   0.866  -0.694  1.00  0.00    -0.274 OA
ATOM     16  H   UNL     1       6.468   1.087   2.477  1.00  0.00     0.164 HD
BRANCH  14  17
ATOM     17  CA  GLY A   1       8.071   2.496   0.814  1.00  0.00     0.178 C 
BRANCH  17  18
ATOM     18  N   GLY A   1       7.238   3.692   0.783  1.00  0.00    -0.322 NA
ATOM     19  H   UNL     1       6.971   3.878  -0.211  1.00  0.00     0.119 HD
ATOM     20  H   UNL     1       7.829   4.499   1.090  1.00  0.00     0.119 HD
ENDBRANCH  17  18
ENDBRANCH  14  17
ENDBRANCH  12  13
BRANCH  12  21
ATOM     21  CB  PHE A   2       5.166  -1.190   2.543  1.00  0.00     0.070 C 
BRANCH  21  22
ATOM     22  CG  PHE A   2       6.350  -1.800   3.250  1.00  0.00    -0.045 A 
ATOM     23  CD1 PHE A   2       6.874  -3.030   2.815  1.00  0.00     0.004 A 
ATOM     24  CD2 PHE A   2       6.969  -1.128   4.318  1.00  0.00     0.004 A 
ATOM     25  CE1 PHE A   2       7.993  -3.584   3.445  1.00  0.00     0.000 A 
ATOM     26  CE2 PHE A   2       8.087  -1.686   4.946  1.00  0.00     0.000 A 
ATOM     27  CZ  PHE A   2       8.600  -2.912   4.510  1.00  0.00     0.000 A 
ENDBRANCH  21  22
ENDBRANCH  12  21
ENDBRANCH   9  12
ENDBRANCH   7   8
BRANCH   7  28
ATOM     28  CB  LEU A   3       2.716  -1.180  -2.762  1.00  0.00     0.038 C 
BRANCH  28  29
ATOM     29  CG  LEU A   3       3.969  -0.928  -3.636  1.00  0.00    -0.015 C 
ATOM     30  CD1 LEU A   3       4.016   0.511  -4.175  1.00  0.00     0.007 C 
ATOM     31  CD2 LEU A   3       3.998  -1.923  -4.805  1.00  0.00     0.007 C 
ENDBRANCH  28  29
ENDBRANCH   7  28
ENDBRANCH   4   7
ENDBRANCH   1   3
BRANCH   1  32
ATOM     32  C   ALA A   4      -2.117   0.490  -0.858  1.00  0.00     0.242 C 
ATOM     33  N   ARG A   5      -3.389   0.507  -0.190  1.00  0.00    -0.343 N 
ATOM     34  O   ALA A   4      -2.063   0.630  -2.112  1.00  0.00    -0.273 OA
ATOM     35  H   UNL     1      -3.400   0.358   0.843  1.00  0.00     0.164 HD
BRANCH  33  36
ATOM     36  CA  ARG A   5      -4.642   0.777  -0.906  1.00  0.00     0.171 C 
BRANCH  36  37
ATOM     37  C   ARG A   5      -5.681   1.409  -0.008  1.00  0.00     0.243 C 
ATOM     38  N   ASN A   6      -6.692   2.253  -0.580  1.00  0.00    -0.341 N 
ATOM     39  O   ARG A   5      -5.690   1.156   1.229  1.00  0.00    -0.273 OA
ATOM     40  H   UNL     1      -6.667   2.419  -1.613  1.00  0.00     0.164 HD
BRANCH  38  41
ATOM     41  CA  ASN A   6      -7.603   3.066   0.231  1.00  0.00     0.201 C 
BRANCH  41  42
ATOM     42  C   ASN A   6      -8.986   3.022  -0.360  1.00  0.00     0.326 C 
ATOM     43  O   ASN A   6      -9.168   3.286  -1.580  1.00  0.00    -0.250 OA
BRANCH  42  44
ATOM     44  OXT ASN A   6     -10.073   2.708   0.450  1.00  0.00    -0.480 OA
ATOM     45  H   UNL     1     -11.011   2.683   0.071  1.00  0.00     0.296 HD
ENDBRANCH  42  44
ENDBRANCH  41  42
BRANCH  41  46
ATOM     46  CB  ASN A   6      -7.074   4.508   0.304  1.00  0.00     0.136 C 
BRANCH  46  47
ATOM     47  CG  ASN A   6      -7.885   5.348   1.247  1.00  0.00     0.220 C 
ATOM     48  ND2 ASN A   6      -7.671   5.267   2.655  1.00  0.00    -0.370 N 
ATOM     49  OD1 ASN A   6      -8.787   6.102   0.794  1.00  0.00    -0.275 OA
ATOM     50  H   UNL     1      -8.259   5.828   3.311  1.00  0.00     0.159 HD
ATOM     51  H   UNL     1      -6.933   4.641   3.046  1.00  0.00     0.159 HD
ENDBRANCH  46  47
ENDBRANCH  41  46
ENDBRANCH  38  41
ENDBRANCH  36  37
BRANCH  36  52
ATOM     52  CB  ARG A   5      -5.175  -0.486  -1.622  1.00  0.00     0.037 C 
BRANCH  52  53
ATOM     53  CG  ARG A   5      -5.808  -1.562  -0.715  1.00  0.00     0.024 C 
BRANCH  53  54
ATOM     54  CD  ARG A   5      -4.776  -2.375   0.078  1.00  0.00     0.116 C 
BRANCH  54  55
ATOM     55  NE  ARG A   5      -5.425  -3.499   0.753  1.00  0.00    -0.357 N 
ATOM     56  CZ  ARG A   5      -5.819  -4.703   0.075  1.00  0.00     0.185 C 
ATOM     57  NH2 ARG A   5      -6.507  -5.727   0.797  1.00  0.00    -0.370 N 
ATOM     58  H   UNL     1      -5.574  -3.437   1.786  1.00  0.00     0.163 HD
ATOM     59  H   UNL     1      -6.799  -6.613   0.327  1.00  0.00     0.159 HD
ATOM     60  H   UNL     1      -6.730  -5.600   1.809  1.00  0.00     0.159 HD
BRANCH  56  61
ATOM     61  NH1 ARG A   5      -5.542  -4.868  -1.180  1.00  0.00    -0.270 NA
ATOM     62  H   UNL     1      -5.816  -5.736  -1.694  1.00  0.00     0.191 HD
ENDBRANCH  56  61
ENDBRANCH  54  55
ENDBRANCH  53  54
ENDBRANCH  52  53
ENDBRANCH  36  52
ENDBRANCH  33  36
ENDBRANCH   1  32
TORSDOF 24
