REMARK SMILES CC[C@H](C)[C@H](NC(=O)[C@H](Cc1ccccc1)NC(=O)[C@@H](N)CO)C(=O)N[C@@H](CO)C(=O)N[C@@H](CCCNC(=N)N)C(=O)N[C@@H](CC(N)=O)C(=O)O
REMARK SMILES IDX 24 1 25 2 26 3 5 5 6 6 7 7 8 8 9 10 17 11 18 12 19 13 20 15
REMARK SMILES IDX 21 16 22 19 23 20 10 22 11 23 12 24 16 25 13 26 15 27 14 28
REMARK SMILES IDX 3 29 4 30 2 31 1 32 27 33 30 34 32 35 31 36 33 38 41 39
REMARK SMILES IDX 43 40 42 41 44 43 49 44 50 45 51 46 45 48 46 49 47 50 48 51
REMARK SMILES IDX 34 54 35 55 36 56 37 57 38 58 40 59 39 63 28 65 29 66
REMARK H PARENT 26 4 6 9 17 14 21 17 21 18 23 21 32 37 43 42 51 47 47 52 47 53
REMARK H PARENT 37 60 40 61 40 62 39 64 29 67
ROOT
ATOM      1  C   ILE A   3      20.036  10.078  -6.473  1.00  0.00     0.243 C 
ATOM      2  O   ILE A   3      20.151   9.159  -5.617  1.00  0.00    -0.273 OA
ATOM      3  N   SER A   4      20.560   9.911  -7.781  1.00  0.00    -0.340 N 
ATOM      4  H   UNL     1      20.403  10.654  -8.499  1.00  0.00     0.164 HD
ENDROOT
BRANCH   1   5
ATOM      5  CA  ILE A   3      19.338  11.359  -6.141  1.00  0.00     0.174 C 
BRANCH   5   6
ATOM      6  N   ILE A   3      18.088  11.052  -5.494  1.00  0.00    -0.342 N 
ATOM      7  C   PHE A   2      16.883  11.746  -5.775  1.00  0.00     0.243 C 
ATOM      8  O   PHE A   2      16.894  12.783  -6.494  1.00  0.00    -0.273 OA
ATOM      9  H   UNL     1      18.166  10.523  -4.600  1.00  0.00     0.164 HD
BRANCH   7  10
ATOM     10  CA  PHE A   2      15.650  11.311  -5.059  1.00  0.00     0.175 C 
BRANCH  10  11
ATOM     11  N   PHE A   2      14.453  11.739  -5.768  1.00  0.00    -0.343 N 
ATOM     12  C   SER A   1      13.916  13.049  -5.633  1.00  0.00     0.239 C 
ATOM     13  O   SER A   1      14.448  13.866  -4.832  1.00  0.00    -0.273 OA
ATOM     14  H   UNL     1      13.867  11.000  -6.214  1.00  0.00     0.164 HD
BRANCH  12  15
ATOM     15  CA  SER A   1      12.661  13.413  -6.387  1.00  0.00     0.167 C 
BRANCH  15  16
ATOM     16  N   SER A   1      12.457  14.863  -6.398  1.00  0.00    -0.318 NA
ATOM     17  H   UNL     1      12.292  15.193  -5.418  1.00  0.00     0.119 HD
ATOM     18  H   UNL     1      13.318  15.337  -6.758  1.00  0.00     0.119 HD
ENDBRANCH  15  16
BRANCH  15  19
ATOM     19  CB  SER A   1      12.690  12.889  -7.841  1.00  0.00     0.184 C 
BRANCH  19  20
ATOM     20  OG  SER A   1      11.437  13.050  -8.444  1.00  0.00    -0.394 OA
ATOM     21  H   UNL     1      11.384  13.992  -8.750  1.00  0.00     0.210 HD
ENDBRANCH  19  20
ENDBRANCH  15  19
ENDBRANCH  12  15
ENDBRANCH  10  11
BRANCH  10  22
ATOM     22  CB  PHE A   2      15.613   9.772  -4.892  1.00  0.00     0.070 C 
BRANCH  22  23
ATOM     23  CG  PHE A   2      14.445   9.288  -4.089  1.00  0.00    -0.045 A 
ATOM     24  CD1 PHE A   2      13.904  10.046  -3.033  1.00  0.00     0.004 A 
ATOM     25  CD2 PHE A   2      13.969   7.989  -4.309  1.00  0.00     0.004 A 
ATOM     26  CE1 PHE A   2      12.869   9.536  -2.260  1.00  0.00     0.000 A 
ATOM     27  CE2 PHE A   2      12.939   7.477  -3.521  1.00  0.00     0.000 A 
ATOM     28  CZ  PHE A   2      12.386   8.253  -2.502  1.00  0.00     0.000 A 
ENDBRANCH  22  23
ENDBRANCH  10  22
ENDBRANCH   7  10
ENDBRANCH   5   6
BRANCH   5  29
ATOM     29  CB  ILE A   3      20.209  12.260  -5.241  1.00  0.00     0.018 C 
ATOM     30  CG1 ILE A   3      19.652  13.692  -5.177  1.00  0.00     0.010 C 
BRANCH  29  31
ATOM     31  CG2 ILE A   3      20.433  11.699  -3.809  1.00  0.00     0.002 C 
ATOM     32  CD1 ILE A   3      21.818  12.069  -3.293  1.00  0.00     0.004 C 
ENDBRANCH  29  31
ENDBRANCH   5  29
ENDBRANCH   1   5
BRANCH   3  33
ATOM     33  CA  SER A   4      21.341   8.746  -8.153  1.00  0.00     0.197 C 
BRANCH  33  34
ATOM     34  C   SER A   4      22.709   9.201  -8.529  1.00  0.00     0.245 C 
ATOM     35  N   ARG A   5      23.817   8.707  -7.790  1.00  0.00    -0.342 N 
ATOM     36  O   SER A   4      22.875  10.028  -9.467  1.00  0.00    -0.273 OA
ATOM     37  H   UNL     1      23.663   7.983  -7.051  1.00  0.00     0.164 HD
BRANCH  35  38
ATOM     38  CA  ARG A   5      25.181   9.117  -8.072  1.00  0.00     0.171 C 
BRANCH  38  39
ATOM     39  C   ARG A   5      25.901   7.968  -8.686  1.00  0.00     0.243 C 
ATOM     40  N   ASN A   6      25.916   7.866 -10.103  1.00  0.00    -0.341 N 
ATOM     41  O   ARG A   5      26.450   7.087  -7.970  1.00  0.00    -0.273 OA
ATOM     42  H   UNL     1      25.495   8.651 -10.651  1.00  0.00     0.164 HD
BRANCH  40  43
ATOM     43  CA  ASN A   6      26.543   6.751 -10.804  1.00  0.00     0.201 C 
BRANCH  43  44
ATOM     44  C   ASN A   6      27.994   6.642 -10.417  1.00  0.00     0.326 C 
ATOM     45  O   ASN A   6      28.795   7.579 -10.677  1.00  0.00    -0.250 OA
BRANCH  44  46
ATOM     46  OXT ASN A   6      28.453   5.497  -9.772  1.00  0.00    -0.480 OA
ATOM     47  H   UNL     1      29.426   5.407  -9.504  1.00  0.00     0.296 HD
ENDBRANCH  44  46
ENDBRANCH  43  44
BRANCH  43  48
ATOM     48  CB  ASN A   6      26.424   6.946 -12.323  1.00  0.00     0.136 C 
BRANCH  48  49
ATOM     49  CG  ASN A   6      25.009   7.181 -12.772  1.00  0.00     0.220 C 
ATOM     50  ND2 ASN A   6      24.753   8.089 -13.834  1.00  0.00    -0.370 N 
ATOM     51  OD1 ASN A   6      24.051   6.563 -12.237  1.00  0.00    -0.275 OA
ATOM     52  H   UNL     1      23.775   8.258 -14.156  1.00  0.00     0.159 HD
ATOM     53  H   UNL     1      25.533   8.595 -14.309  1.00  0.00     0.159 HD
ENDBRANCH  48  49
ENDBRANCH  43  48
ENDBRANCH  40  43
ENDBRANCH  38  39
BRANCH  38  54
ATOM     54  CB  ARG A   5      25.856   9.601  -6.793  1.00  0.00     0.037 C 
BRANCH  54  55
ATOM     55  CG  ARG A   5      25.163  10.859  -6.272  1.00  0.00     0.024 C 
BRANCH  55  56
ATOM     56  CD  ARG A   5      25.838  11.391  -5.015  1.00  0.00     0.116 C 
BRANCH  56  57
ATOM     57  NE  ARG A   5      25.378  10.684  -3.823  1.00  0.00    -0.357 N 
ATOM     58  CZ  ARG A   5      25.468  11.279  -2.527  1.00  0.00     0.185 C 
ATOM     59  NH2 ARG A   5      26.105  12.541  -2.350  1.00  0.00    -0.370 N 
ATOM     60  H   UNL     1      24.899   9.759  -3.921  1.00  0.00     0.163 HD
ATOM     61  H   UNL     1      26.081  13.008  -1.416  1.00  0.00     0.159 HD
ATOM     62  H   UNL     1      26.691  12.983  -3.091  1.00  0.00     0.159 HD
BRANCH  58  63
ATOM     63  NH1 ARG A   5      24.957  10.679  -1.500  1.00  0.00    -0.270 NA
ATOM     64  H   UNL     1      24.474   9.757  -1.584  1.00  0.00     0.191 HD
ENDBRANCH  58  63
ENDBRANCH  56  57
ENDBRANCH  55  56
ENDBRANCH  54  55
ENDBRANCH  38  54
ENDBRANCH  35  38
ENDBRANCH  33  34
BRANCH  33  65
ATOM     65  CB  SER A   4      20.659   8.002  -9.299  1.00  0.00     0.191 C 
BRANCH  65  66
ATOM     66  OG  SER A   4      21.399   6.869  -9.670  1.00  0.00    -0.394 OA
ATOM     67  H   UNL     1      21.243   6.184  -8.968  1.00  0.00     0.210 HD
ENDBRANCH  65  66
ENDBRANCH  33  65
ENDBRANCH   3  33
TORSDOF 28
