REMARK SMILES CC(C)C[C@H](NC(=O)CNC(=O)[C@H](Cc1ccccc1)NC(=O)[C@@H](N)CO)C(=O)N[C@@H](CCCNC(=N)N)C(=O)N[C@@H](CCCCN)C(=O)O
REMARK SMILES IDX 28 1 29 2 30 3 5 5 6 6 7 7 8 8 9 10 10 11 11 12 12 13 13 15
REMARK SMILES IDX 21 16 22 17 23 18 24 20 25 21 26 24 27 25 14 27 15 28 16 29
REMARK SMILES IDX 20 30 17 31 19 32 18 33 4 34 2 35 1 36 3 37 31 38 39 39
REMARK SMILES IDX 41 40 40 41 42 43 48 44 49 45 50 46 43 48 44 49 45 50 46 51
REMARK SMILES IDX 47 52 32 55 33 56 34 57 35 58 36 59 38 60 37 64
REMARK H PARENT 30 4 6 9 10 14 21 19 25 22 25 23 27 26 41 42 50 47 47 53 47 54
REMARK H PARENT 35 61 38 62 38 63 37 65
ROOT
ATOM      1  C   LEU A   4      22.712   9.215  -8.518  1.00  0.00     0.243 C 
ATOM      2  O   LEU A   4      22.876  10.031  -9.466  1.00  0.00    -0.273 OA
ATOM      3  N   ARG A   5      23.821   8.719  -7.782  1.00  0.00    -0.343 N 
ATOM      4  H   UNL     1      23.665   8.029  -7.012  1.00  0.00     0.164 HD
ENDROOT
BRANCH   1   5
ATOM      5  CA  LEU A   4      21.346   8.757  -8.138  1.00  0.00     0.171 C 
BRANCH   5   6
ATOM      6  N   LEU A   4      20.558   9.918  -7.776  1.00  0.00    -0.343 N 
ATOM      7  C   GLY A   3      20.042  10.101  -6.467  1.00  0.00     0.240 C 
ATOM      8  O   GLY A   3      20.173   9.205  -5.587  1.00  0.00    -0.273 OA
ATOM      9  H   UNL     1      20.388  10.651  -8.503  1.00  0.00     0.164 HD
BRANCH   7  10
ATOM     10  CA  GLY A   3      19.352  11.377  -6.153  1.00  0.00     0.216 C 
BRANCH  10  11
ATOM     11  N   GLY A   3      18.112  11.084  -5.478  1.00  0.00    -0.345 N 
ATOM     12  C   PHE A   2      16.896  11.758  -5.772  1.00  0.00     0.243 C 
ATOM     13  O   PHE A   2      16.901  12.792  -6.494  1.00  0.00    -0.273 OA
ATOM     14  H   UNL     1      18.214  10.612  -4.553  1.00  0.00     0.164 HD
BRANCH  12  15
ATOM     15  CA  PHE A   2      15.658  11.316  -5.061  1.00  0.00     0.175 C 
BRANCH  15  16
ATOM     16  N   PHE A   2      14.458  11.740  -5.770  1.00  0.00    -0.343 N 
ATOM     17  C   SER A   1      13.917  13.050  -5.636  1.00  0.00     0.239 C 
ATOM     18  O   SER A   1      14.450  13.869  -4.838  1.00  0.00    -0.273 OA
ATOM     19  H   UNL     1      13.869  11.000  -6.209  1.00  0.00     0.164 HD
BRANCH  17  20
ATOM     20  CA  SER A   1      12.656  13.409  -6.383  1.00  0.00     0.167 C 
BRANCH  20  21
ATOM     21  N   SER A   1      12.468  14.861  -6.382  1.00  0.00    -0.318 NA
ATOM     22  H   UNL     1      12.305  15.173  -5.396  1.00  0.00     0.119 HD
ATOM     23  H   UNL     1      11.581  15.085  -6.889  1.00  0.00     0.119 HD
ENDBRANCH  20  21
BRANCH  20  24
ATOM     24  CB  SER A   1      12.695  12.892  -7.841  1.00  0.00     0.184 C 
BRANCH  24  25
ATOM     25  OG  SER A   1      11.441  13.037  -8.449  1.00  0.00    -0.394 OA
ATOM     26  H   UNL     1      10.854  12.334  -8.064  1.00  0.00     0.210 HD
ENDBRANCH  24  25
ENDBRANCH  20  24
ENDBRANCH  17  20
ENDBRANCH  15  16
BRANCH  15  27
ATOM     27  CB  PHE A   2      15.627   9.778  -4.891  1.00  0.00     0.070 C 
BRANCH  27  28
ATOM     28  CG  PHE A   2      14.456   9.289  -4.088  1.00  0.00    -0.045 A 
ATOM     29  CD1 PHE A   2      13.910  10.047  -3.033  1.00  0.00     0.004 A 
ATOM     30  CD2 PHE A   2      13.976   7.991  -4.310  1.00  0.00     0.004 A 
ATOM     31  CE1 PHE A   2      12.872   9.537  -2.263  1.00  0.00     0.000 A 
ATOM     32  CE2 PHE A   2      12.944   7.479  -3.524  1.00  0.00     0.000 A 
ATOM     33  CZ  PHE A   2      12.389   8.254  -2.506  1.00  0.00     0.000 A 
ENDBRANCH  27  28
ENDBRANCH  15  27
ENDBRANCH  12  15
ENDBRANCH  10  11
ENDBRANCH   7  10
ENDBRANCH   5   6
BRANCH   5  34
ATOM     34  CB  LEU A   4      20.657   7.997  -9.273  1.00  0.00     0.038 C 
BRANCH  34  35
ATOM     35  CG  LEU A   4      21.452   6.770  -9.772  1.00  0.00    -0.015 C 
ATOM     36  CD1 LEU A   4      21.764   5.778  -8.642  1.00  0.00     0.007 C 
ATOM     37  CD2 LEU A   4      20.664   6.067 -10.880  1.00  0.00     0.007 C 
ENDBRANCH  34  35
ENDBRANCH   5  34
ENDBRANCH   1   5
BRANCH   3  38
ATOM     38  CA  ARG A   5      25.184   9.121  -8.069  1.00  0.00     0.171 C 
BRANCH  38  39
ATOM     39  C   ARG A   5      25.899   7.967  -8.684  1.00  0.00     0.243 C 
ATOM     40  N   LYS A   6      25.928   7.882 -10.101  1.00  0.00    -0.341 N 
ATOM     41  O   ARG A   5      26.441   7.080  -7.971  1.00  0.00    -0.273 OA
ATOM     42  H   UNL     1      25.614   8.724 -10.633  1.00  0.00     0.164 HD
BRANCH  40  43
ATOM     43  CA  LYS A   6      26.538   6.767 -10.815  1.00  0.00     0.192 C 
BRANCH  43  44
ATOM     44  C   LYS A   6      27.988   6.642 -10.429  1.00  0.00     0.326 C 
ATOM     45  O   LYS A   6      28.795   7.576 -10.679  1.00  0.00    -0.250 OA
BRANCH  44  46
ATOM     46  OXT LYS A   6      28.437   5.488  -9.796  1.00  0.00    -0.480 OA
ATOM     47  H   UNL     1      29.409   5.387  -9.528  1.00  0.00     0.296 HD
ENDBRANCH  44  46
ENDBRANCH  43  44
BRANCH  43  48
ATOM     48  CB  LYS A   6      26.418   6.987 -12.335  1.00  0.00     0.037 C 
BRANCH  48  49
ATOM     49  CG  LYS A   6      24.957   7.127 -12.795  1.00  0.00     0.004 C 
BRANCH  49  50
ATOM     50  CD  LYS A   6      24.858   7.150 -14.327  1.00  0.00     0.015 C 
BRANCH  50  51
ATOM     51  CE  LYS A   6      23.402   7.224 -14.803  1.00  0.00     0.077 C 
BRANCH  51  52
ATOM     52  NZ  LYS A   6      22.783   8.481 -14.394  1.00  0.00    -0.330 NA
ATOM     53  H   UNL     1      23.224   9.256 -14.941  1.00  0.00     0.118 HD
ATOM     54  H   UNL     1      21.778   8.449 -14.681  1.00  0.00     0.118 HD
ENDBRANCH  51  52
ENDBRANCH  50  51
ENDBRANCH  49  50
ENDBRANCH  48  49
ENDBRANCH  43  48
ENDBRANCH  40  43
ENDBRANCH  38  39
BRANCH  38  55
ATOM     55  CB  ARG A   5      25.862   9.603  -6.793  1.00  0.00     0.037 C 
BRANCH  55  56
ATOM     56  CG  ARG A   5      25.168  10.859  -6.269  1.00  0.00     0.024 C 
BRANCH  56  57
ATOM     57  CD  ARG A   5      25.843  11.390  -5.013  1.00  0.00     0.116 C 
BRANCH  57  58
ATOM     58  NE  ARG A   5      25.378  10.687  -3.820  1.00  0.00    -0.357 N 
ATOM     59  CZ  ARG A   5      25.470  11.282  -2.526  1.00  0.00     0.185 C 
ATOM     60  NH2 ARG A   5      26.109  12.546  -2.351  1.00  0.00    -0.370 N 
ATOM     61  H   UNL     1      24.900   9.761  -3.911  1.00  0.00     0.163 HD
ATOM     62  H   UNL     1      26.700  12.981  -3.092  1.00  0.00     0.159 HD
ATOM     63  H   UNL     1      26.083  13.023  -1.422  1.00  0.00     0.159 HD
BRANCH  59  64
ATOM     64  NH1 ARG A   5      24.956  10.671  -1.506  1.00  0.00    -0.270 NA
ATOM     65  H   UNL     1      24.999  11.075  -0.544  1.00  0.00     0.191 HD
ENDBRANCH  59  64
ENDBRANCH  57  58
ENDBRANCH  56  57
ENDBRANCH  55  56
ENDBRANCH  38  55
ENDBRANCH   3  38
TORSDOF 29
