REMARK SMILES CC(C)C[C@H](NC(=O)[C@H](Cc1ccccc1)NC(=O)[C@@H](N)CO)C(=O)N[C@@H](CO)C(=O)N[C@@H](CCCNC(=N)N)C(=O)N[C@@H](Cc1c[nH]cn1)C(=O)O
REMARK SMILES IDX 24 1 25 2 26 3 5 5 6 6 7 7 8 8 9 10 17 11 18 12 19 13 20 15
REMARK SMILES IDX 21 16 22 19 23 20 10 22 11 23 12 24 16 25 13 26 15 27 14 28
REMARK SMILES IDX 4 29 2 30 1 31 3 32 27 33 30 34 32 35 31 36 33 38 41 39
REMARK SMILES IDX 43 40 42 41 44 43 51 44 52 45 53 46 45 48 46 49 50 50 47 51
REMARK SMILES IDX 49 52 48 53 34 55 35 56 36 57 37 58 38 59 40 60 39 64 28 66
REMARK SMILES IDX 29 67
REMARK H PARENT 26 4 6 9 17 14 21 17 21 18 23 21 32 37 43 42 53 47 48 54 37 61
REMARK H PARENT 40 62 40 63 39 65 29 68
ROOT
ATOM      1  C   LEU A   3      20.054  10.082  -6.477  1.00  0.00     0.243 C 
ATOM      2  O   LEU A   3      20.167   9.158  -5.624  1.00  0.00    -0.273 OA
ATOM      3  N   SER A   4      20.567   9.914  -7.786  1.00  0.00    -0.340 N 
ATOM      4  H   UNL     1      20.406  10.656  -8.505  1.00  0.00     0.164 HD
ENDROOT
BRANCH   1   5
ATOM      5  CA  LEU A   3      19.341  11.352  -6.147  1.00  0.00     0.171 C 
BRANCH   5   6
ATOM      6  N   LEU A   3      18.083  11.020  -5.538  1.00  0.00    -0.343 N 
ATOM      7  C   PHE A   2      16.887  11.745  -5.775  1.00  0.00     0.243 C 
ATOM      8  O   PHE A   2      16.906  12.796  -6.474  1.00  0.00    -0.273 OA
ATOM      9  H   UNL     1      18.156  10.385  -4.719  1.00  0.00     0.164 HD
BRANCH   7  10
ATOM     10  CA  PHE A   2      15.652  11.314  -5.057  1.00  0.00     0.175 C 
BRANCH  10  11
ATOM     11  N   PHE A   2      14.456  11.740  -5.769  1.00  0.00    -0.343 N 
ATOM     12  C   SER A   1      13.914  13.049  -5.637  1.00  0.00     0.239 C 
ATOM     13  O   SER A   1      14.442  13.869  -4.836  1.00  0.00    -0.273 OA
ATOM     14  H   UNL     1      13.876  11.000  -6.220  1.00  0.00     0.164 HD
BRANCH  12  15
ATOM     15  CA  SER A   1      12.661  13.410  -6.390  1.00  0.00     0.167 C 
BRANCH  15  16
ATOM     16  N   SER A   1      12.475  14.863  -6.375  1.00  0.00    -0.318 NA
ATOM     17  H   UNL     1      11.521  15.090  -6.739  1.00  0.00     0.119 HD
ATOM     18  H   UNL     1      13.175  15.314  -7.009  1.00  0.00     0.119 HD
ENDBRANCH  15  16
BRANCH  15  19
ATOM     19  CB  SER A   1      12.688  12.878  -7.844  1.00  0.00     0.184 C 
BRANCH  19  20
ATOM     20  OG  SER A   1      11.436  13.047  -8.450  1.00  0.00    -0.394 OA
ATOM     21  H   UNL     1      11.447  13.936  -8.892  1.00  0.00     0.210 HD
ENDBRANCH  19  20
ENDBRANCH  15  19
ENDBRANCH  12  15
ENDBRANCH  10  11
BRANCH  10  22
ATOM     22  CB  PHE A   2      15.610   9.774  -4.880  1.00  0.00     0.070 C 
BRANCH  22  23
ATOM     23  CG  PHE A   2      14.435   9.292  -4.092  1.00  0.00    -0.045 A 
ATOM     24  CD1 PHE A   2      13.898  10.048  -3.033  1.00  0.00     0.004 A 
ATOM     25  CD2 PHE A   2      13.964   7.991  -4.310  1.00  0.00     0.004 A 
ATOM     26  CE1 PHE A   2      12.866   9.535  -2.258  1.00  0.00     0.000 A 
ATOM     27  CE2 PHE A   2      12.937   7.477  -3.520  1.00  0.00     0.000 A 
ATOM     28  CZ  PHE A   2      12.384   8.251  -2.500  1.00  0.00     0.000 A 
ENDBRANCH  22  23
ENDBRANCH  10  22
ENDBRANCH   7  10
ENDBRANCH   5   6
BRANCH   5  29
ATOM     29  CB  LEU A   3      20.164  12.252  -5.216  1.00  0.00     0.038 C 
BRANCH  29  30
ATOM     30  CG  LEU A   3      20.417  11.679  -3.791  1.00  0.00    -0.015 C 
ATOM     31  CD1 LEU A   3      21.819  12.066  -3.316  1.00  0.00     0.007 C 
ATOM     32  CD2 LEU A   3      19.369  12.169  -2.781  1.00  0.00     0.007 C 
ENDBRANCH  29  30
ENDBRANCH   5  29
ENDBRANCH   1   5
BRANCH   3  33
ATOM     33  CA  SER A   4      21.343   8.746  -8.158  1.00  0.00     0.197 C 
BRANCH  33  34
ATOM     34  C   SER A   4      22.711   9.197  -8.534  1.00  0.00     0.245 C 
ATOM     35  N   ARG A   5      23.817   8.706  -7.791  1.00  0.00    -0.342 N 
ATOM     36  O   SER A   4      22.878  10.025  -9.471  1.00  0.00    -0.273 OA
ATOM     37  H   UNL     1      23.662   7.985  -7.049  1.00  0.00     0.164 HD
BRANCH  35  38
ATOM     38  CA  ARG A   5      25.181   9.116  -8.072  1.00  0.00     0.171 C 
BRANCH  38  39
ATOM     39  C   ARG A   5      25.901   7.967  -8.688  1.00  0.00     0.243 C 
ATOM     40  N   HIS A   6      25.910   7.867 -10.105  1.00  0.00    -0.341 N 
ATOM     41  O   ARG A   5      26.451   7.085  -7.974  1.00  0.00    -0.273 OA
ATOM     42  H   UNL     1      25.487   8.656 -10.646  1.00  0.00     0.164 HD
BRANCH  40  43
ATOM     43  CA  HIS A   6      26.536   6.761 -10.820  1.00  0.00     0.198 C 
BRANCH  43  44
ATOM     44  C   HIS A   6      27.987   6.644 -10.429  1.00  0.00     0.326 C 
ATOM     45  O   HIS A   6      28.792   7.580 -10.680  1.00  0.00    -0.250 OA
BRANCH  44  46
ATOM     46  OXT HIS A   6      28.439   5.494  -9.790  1.00  0.00    -0.480 OA
ATOM     47  H   UNL     1      29.411   5.398  -9.520  1.00  0.00     0.296 HD
ENDBRANCH  44  46
ENDBRANCH  43  44
BRANCH  43  48
ATOM     48  CB  HIS A   6      26.416   6.979 -12.339  1.00  0.00     0.094 C 
BRANCH  48  49
ATOM     49  CG  HIS A   6      24.986   7.154 -12.768  1.00  0.00     0.061 A 
ATOM     50  ND1 HIS A   6      24.051   6.186 -12.682  1.00  0.00    -0.242 NA
ATOM     51  CD2 HIS A   6      24.416   8.314 -13.246  1.00  0.00     0.107 A 
ATOM     52  CE1 HIS A   6      22.923   6.786 -13.118  1.00  0.00     0.196 A 
ATOM     53  NE2 HIS A   6      23.115   8.073 -13.465  1.00  0.00    -0.351 N 
ATOM     54  H   UNL     1      22.400   8.744 -13.821  1.00  0.00     0.167 HD
ENDBRANCH  48  49
ENDBRANCH  43  48
ENDBRANCH  40  43
ENDBRANCH  38  39
BRANCH  38  55
ATOM     55  CB  ARG A   5      25.856   9.599  -6.793  1.00  0.00     0.037 C 
BRANCH  55  56
ATOM     56  CG  ARG A   5      25.164  10.858  -6.272  1.00  0.00     0.024 C 
BRANCH  56  57
ATOM     57  CD  ARG A   5      25.838  11.390  -5.015  1.00  0.00     0.116 C 
BRANCH  57  58
ATOM     58  NE  ARG A   5      25.377  10.684  -3.823  1.00  0.00    -0.357 N 
ATOM     59  CZ  ARG A   5      25.468  11.279  -2.527  1.00  0.00     0.185 C 
ATOM     60  NH2 ARG A   5      26.105  12.541  -2.350  1.00  0.00    -0.370 N 
ATOM     61  H   UNL     1      24.898   9.759  -3.921  1.00  0.00     0.163 HD
ATOM     62  H   UNL     1      26.081  13.008  -1.416  1.00  0.00     0.159 HD
ATOM     63  H   UNL     1      26.691  12.983  -3.092  1.00  0.00     0.159 HD
BRANCH  59  64
ATOM     64  NH1 ARG A   5      24.957  10.680  -1.500  1.00  0.00    -0.270 NA
ATOM     65  H   UNL     1      24.474   9.757  -1.584  1.00  0.00     0.191 HD
ENDBRANCH  59  64
ENDBRANCH  57  58
ENDBRANCH  56  57
ENDBRANCH  55  56
ENDBRANCH  38  55
ENDBRANCH  35  38
ENDBRANCH  33  34
BRANCH  33  66
ATOM     66  CB  SER A   4      20.666   8.001  -9.306  1.00  0.00     0.191 C 
BRANCH  66  67
ATOM     67  OG  SER A   4      19.429   7.483  -8.895  1.00  0.00    -0.394 OA
ATOM     68  H   UNL     1      18.774   8.227  -8.949  1.00  0.00     0.210 HD
ENDBRANCH  66  67
ENDBRANCH  33  66
ENDBRANCH   3  33
TORSDOF 28
