REMARK SMILES CC(C)C[C@H](NC(=O)[C@H](CCCNC(=N)N)NC(=O)[C@H](Cc1ccccc1)NC(=O)CN)C(=O)N[C@@H](CCCNC(=N)N)C(=O)N[C@@H](CC(N)=O)C(=O)O
REMARK SMILES IDX 5 1 6 2 7 3 8 4 9 6 17 7 18 8 19 9 20 11 28 12 29 13 30 14
REMARK SMILES IDX 31 16 32 17 21 20 22 21 23 22 27 23 24 24 26 25 25 26 10 27
REMARK SMILES IDX 11 28 12 29 13 30 14 31 16 32 15 36 33 38 35 39 34 40 36 42
REMARK SMILES IDX 44 43 46 44 45 45 47 47 52 48 53 49 54 50 48 52 49 53 50 54
REMARK SMILES IDX 51 55 37 58 38 59 39 60 40 61 41 62 43 63 42 67 4 69 2 70
REMARK SMILES IDX 1 71 3 72
REMARK H PARENT 6 5 17 10 28 15 32 18 32 19 13 33 16 34 16 35 15 37 35 41
REMARK H PARENT 46 46 54 51 50 56 50 57 40 64 43 65 43 66 42 68
ROOT
ATOM      1  CA  LEU A   4      -0.756   0.931  -0.957  1.00  0.00     0.171 C 
ENDROOT
BRANCH   1   2
ATOM      2  N   LEU A   4       0.251  -0.128  -1.059  1.00  0.00    -0.343 N 
ATOM      3  C   ARG A   3       1.247  -0.359  -0.056  1.00  0.00     0.243 C 
ATOM      4  O   ARG A   3       1.406   0.462   0.888  1.00  0.00    -0.273 OA
ATOM      5  H   UNL     1       0.184  -0.799  -1.859  1.00  0.00     0.164 HD
BRANCH   3   6
ATOM      6  CA  ARG A   3       2.106  -1.592  -0.117  1.00  0.00     0.171 C 
BRANCH   6   7
ATOM      7  N   ARG A   3       3.515  -1.192  -0.123  1.00  0.00    -0.343 N 
ATOM      8  C   PHE A   2       4.157  -0.716  -1.315  1.00  0.00     0.243 C 
ATOM      9  O   PHE A   2       3.575  -0.816  -2.428  1.00  0.00    -0.273 OA
ATOM     10  H   UNL     1       4.002  -1.056   0.797  1.00  0.00     0.164 HD
BRANCH   8  11
ATOM     11  CA  PHE A   2       5.517  -0.070  -1.243  1.00  0.00     0.175 C 
BRANCH  11  12
ATOM     12  N   PHE A   2       6.441  -0.777  -2.138  1.00  0.00    -0.343 N 
ATOM     13  C   GLY A   1       7.803  -1.060  -1.781  1.00  0.00     0.234 C 
ATOM     14  O   GLY A   1       8.226  -0.803  -0.620  1.00  0.00    -0.274 OA
ATOM     15  H   UNL     1       6.148  -0.938  -3.129  1.00  0.00     0.164 HD
BRANCH  13  16
ATOM     16  CA  GLY A   1       8.751  -1.592  -2.816  1.00  0.00     0.178 C 
BRANCH  16  17
ATOM     17  N   GLY A   1       9.729  -2.489  -2.207  1.00  0.00    -0.322 NA
ATOM     18  H   UNL     1      10.401  -2.782  -2.954  1.00  0.00     0.119 HD
ATOM     19  H   UNL     1       9.229  -3.354  -1.893  1.00  0.00     0.119 HD
ENDBRANCH  16  17
ENDBRANCH  13  16
ENDBRANCH  11  12
BRANCH  11  20
ATOM     20  CB  PHE A   2       5.414   1.417  -1.636  1.00  0.00     0.070 C 
BRANCH  20  21
ATOM     21  CG  PHE A   2       6.749   2.111  -1.529  1.00  0.00    -0.045 A 
ATOM     22  CD1 PHE A   2       7.568   2.246  -2.660  1.00  0.00     0.004 A 
ATOM     23  CD2 PHE A   2       7.207   2.586  -0.287  1.00  0.00     0.004 A 
ATOM     24  CE1 PHE A   2       8.829   2.841  -2.554  1.00  0.00     0.000 A 
ATOM     25  CE2 PHE A   2       8.464   3.191  -0.187  1.00  0.00     0.000 A 
ATOM     26  CZ  PHE A   2       9.273   3.317  -1.318  1.00  0.00     0.000 A 
ENDBRANCH  20  21
ENDBRANCH  11  20
ENDBRANCH   8  11
ENDBRANCH   6   7
BRANCH   6  27
ATOM     27  CB  ARG A   3       1.808  -2.528   1.072  1.00  0.00     0.037 C 
BRANCH  27  28
ATOM     28  CG  ARG A   3       0.373  -3.087   1.015  1.00  0.00     0.024 C 
BRANCH  28  29
ATOM     29  CD  ARG A   3       0.095  -4.117   2.116  1.00  0.00     0.116 C 
BRANCH  29  30
ATOM     30  NE  ARG A   3       0.036  -3.478   3.434  1.00  0.00    -0.357 N 
ATOM     31  CZ  ARG A   3       1.146  -3.302   4.336  1.00  0.00     0.185 C 
ATOM     32  NH2 ARG A   3       0.981  -2.472   5.485  1.00  0.00    -0.370 N 
ATOM     33  H   UNL     1      -0.867  -3.016   3.688  1.00  0.00     0.163 HD
ATOM     34  H   UNL     1       0.082  -1.975   5.662  1.00  0.00     0.159 HD
ATOM     35  H   UNL     1       1.760  -2.354   6.171  1.00  0.00     0.159 HD
BRANCH  31  36
ATOM     36  NH1 ARG A   3       2.292  -3.878   4.142  1.00  0.00    -0.270 NA
ATOM     37  H   UNL     1       2.511  -4.502   3.335  1.00  0.00     0.191 HD
ENDBRANCH  31  36
ENDBRANCH  29  30
ENDBRANCH  28  29
ENDBRANCH  27  28
ENDBRANCH   6  27
ENDBRANCH   3   6
ENDBRANCH   1   2
BRANCH   1  38
ATOM     38  C   LEU A   4      -2.098   0.311  -0.668  1.00  0.00     0.243 C 
ATOM     39  N   ARG A   5      -2.933   0.848   0.370  1.00  0.00    -0.343 N 
ATOM     40  O   LEU A   4      -2.495  -0.666  -1.361  1.00  0.00    -0.273 OA
ATOM     41  H   UNL     1      -2.570   1.643   0.944  1.00  0.00     0.164 HD
BRANCH  39  42
ATOM     42  CA  ARG A   5      -4.218   0.239   0.725  1.00  0.00     0.171 C 
BRANCH  42  43
ATOM     43  C   ARG A   5      -5.125   1.283   1.327  1.00  0.00     0.243 C 
ATOM     44  N   ASN A   6      -6.253   1.772   0.584  1.00  0.00    -0.341 N 
ATOM     45  O   ARG A   5      -4.888   1.726   2.484  1.00  0.00    -0.273 OA
ATOM     46  H   UNL     1      -6.383   1.448  -0.401  1.00  0.00     0.164 HD
BRANCH  44  47
ATOM     47  CA  ASN A   6      -7.275   2.622   1.201  1.00  0.00     0.201 C 
BRANCH  47  48
ATOM     48  C   ASN A   6      -8.093   1.800   2.157  1.00  0.00     0.326 C 
ATOM     49  O   ASN A   6      -8.713   0.781   1.750  1.00  0.00    -0.250 OA
BRANCH  48  50
ATOM     50  OXT ASN A   6      -8.154   2.159   3.502  1.00  0.00    -0.480 OA
ATOM     51  H   UNL     1      -8.691   1.608   4.161  1.00  0.00     0.296 HD
ENDBRANCH  48  50
ENDBRANCH  47  48
BRANCH  47  52
ATOM     52  CB  ASN A   6      -8.161   3.268   0.121  1.00  0.00     0.136 C 
BRANCH  52  53
ATOM     53  CG  ASN A   6      -9.104   4.278   0.709  1.00  0.00     0.220 C 
ATOM     54  ND2 ASN A   6      -8.664   5.613   0.968  1.00  0.00    -0.370 N 
ATOM     55  OD1 ASN A   6     -10.284   3.942   1.000  1.00  0.00    -0.275 OA
ATOM     56  H   UNL     1      -9.317   6.305   1.397  1.00  0.00     0.159 HD
ATOM     57  H   UNL     1      -7.695   5.912   0.720  1.00  0.00     0.159 HD
ENDBRANCH  52  53
ENDBRANCH  47  52
ENDBRANCH  44  47
ENDBRANCH  42  43
BRANCH  42  58
ATOM     58  CB  ARG A   5      -3.985  -0.944   1.690  1.00  0.00     0.037 C 
BRANCH  58  59
ATOM     59  CG  ARG A   5      -5.278  -1.666   2.123  1.00  0.00     0.024 C 
BRANCH  59  60
ATOM     60  CD  ARG A   5      -6.051  -2.311   0.960  1.00  0.00     0.116 C 
BRANCH  60  61
ATOM     61  NE  ARG A   5      -5.195  -3.203   0.175  1.00  0.00    -0.357 N 
ATOM     62  CZ  ARG A   5      -4.636  -4.434   0.668  1.00  0.00     0.185 C 
ATOM     63  NH2 ARG A   5      -3.554  -5.042  -0.037  1.00  0.00    -0.370 N 
ATOM     64  H   UNL     1      -4.923  -2.887  -0.784  1.00  0.00     0.163 HD
ATOM     65  H   UNL     1      -3.126  -5.927   0.312  1.00  0.00     0.159 HD
ATOM     66  H   UNL     1      -3.170  -4.601  -0.901  1.00  0.00     0.159 HD
BRANCH  62  67
ATOM     67  NH1 ARG A   5      -5.103  -5.018   1.729  1.00  0.00    -0.270 NA
ATOM     68  H   UNL     1      -5.896  -4.643   2.292  1.00  0.00     0.191 HD
ENDBRANCH  62  67
ENDBRANCH  60  61
ENDBRANCH  59  60
ENDBRANCH  58  59
ENDBRANCH  42  58
ENDBRANCH  39  42
ENDBRANCH   1  38
BRANCH   1  69
ATOM     69  CB  LEU A   4      -0.815   1.738  -2.268  1.00  0.00     0.038 C 
BRANCH  69  70
ATOM     70  CG  LEU A   4       0.532   2.400  -2.653  1.00  0.00    -0.015 C 
ATOM     71  CD1 LEU A   4       0.433   3.003  -4.058  1.00  0.00     0.007 C 
ATOM     72  CD2 LEU A   4       0.952   3.491  -1.655  1.00  0.00     0.007 C 
ENDBRANCH  69  70
ENDBRANCH   1  69
TORSDOF 29
