REMARK SMILES CC(C)C[C@H](NC(=O)[C@H](CC(=O)O)NC(=O)[C@@H](N)CO)C(=O)N[C@@H](C)C(=O)N[C@@H](CCCNC(=N)N)C(=O)N[C@@H](CC(N)=O)C(=O)O
REMARK SMILES IDX 21 1 22 2 23 3 5 5 6 6 7 7 8 8 9 10 14 11 15 12 16 13 17 15
REMARK SMILES IDX 18 16 19 19 20 20 10 22 11 23 12 24 13 25 4 27 2 28 1 29
REMARK SMILES IDX 3 30 24 31 25 32 26 33 28 34 27 35 29 37 37 38 39 39 38 40
REMARK SMILES IDX 40 42 45 43 46 44 47 45 41 47 42 48 43 49 44 50 30 53 31 54
REMARK SMILES IDX 32 55 33 56 34 57 36 58 35 62
REMARK H PARENT 23 4 6 9 14 14 18 17 18 18 20 21 13 26 28 36 39 41 47 46 43 51
REMARK H PARENT 43 52 33 59 36 60 36 61 35 63
ROOT
ATOM      1  C   LEU A   3       0.554   0.595   1.392  1.00  0.00     0.243 C 
ATOM      2  O   LEU A   3      -0.359   0.392   2.241  1.00  0.00    -0.273 OA
ATOM      3  N   ALA A   4       0.279   1.413   0.242  1.00  0.00    -0.343 N 
ATOM      4  H   UNL     1       1.047   1.638  -0.425  1.00  0.00     0.164 HD
ENDROOT
BRANCH   1   5
ATOM      5  CA  LEU A   3       1.920  -0.006   1.658  1.00  0.00     0.171 C 
BRANCH   5   6
ATOM      6  N   LEU A   3       2.635  -0.413   0.440  1.00  0.00    -0.342 N 
ATOM      7  C   ASP A   2       3.781  -1.278   0.480  1.00  0.00     0.243 C 
ATOM      8  O   ASP A   2       4.058  -1.909   1.537  1.00  0.00    -0.273 OA
ATOM      9  H   UNL     1       2.285  -0.132  -0.502  1.00  0.00     0.164 HD
BRANCH   7  10
ATOM     10  CA  ASP A   2       4.626  -1.473  -0.754  1.00  0.00     0.182 C 
BRANCH  10  11
ATOM     11  N   ASP A   2       6.056  -1.405  -0.428  1.00  0.00    -0.342 N 
ATOM     12  C   SER A   1       7.061  -1.173  -1.425  1.00  0.00     0.239 C 
ATOM     13  O   SER A   1       6.728  -0.908  -2.612  1.00  0.00    -0.273 OA
ATOM     14  H   UNL     1       6.372  -1.560   0.557  1.00  0.00     0.164 HD
BRANCH  12  15
ATOM     15  CA  SER A   1       8.518  -1.185  -1.043  1.00  0.00     0.167 C 
BRANCH  15  16
ATOM     16  N   SER A   1       9.319  -1.770  -2.121  1.00  0.00    -0.318 NA
ATOM     17  H   UNL     1      10.311  -1.853  -1.797  1.00  0.00     0.119 HD
ATOM     18  H   UNL     1       8.990  -2.751  -2.269  1.00  0.00     0.119 HD
ENDBRANCH  15  16
BRANCH  15  19
ATOM     19  CB  SER A   1       8.981   0.250  -0.745  1.00  0.00     0.184 C 
BRANCH  19  20
ATOM     20  OG  SER A   1      10.301   0.257  -0.271  1.00  0.00    -0.394 OA
ATOM     21  H   UNL     1      10.268  -0.059   0.670  1.00  0.00     0.210 HD
ENDBRANCH  19  20
ENDBRANCH  15  19
ENDBRANCH  12  15
ENDBRANCH  10  11
BRANCH  10  22
ATOM     22  CB  ASP A   2       4.273  -2.792  -1.472  1.00  0.00     0.157 C 
BRANCH  22  23
ATOM     23  CG  ASP A   2       4.869  -4.000  -0.807  1.00  0.00     0.305 C 
ATOM     24  OD1 ASP A   2       4.367  -4.453   0.259  1.00  0.00    -0.252 OA
BRANCH  23  25
ATOM     25  OD2 ASP A   2       5.999  -4.602  -1.357  1.00  0.00    -0.481 OA
ATOM     26  H   UNL     1       6.435  -5.399  -0.908  1.00  0.00     0.296 HD
ENDBRANCH  23  25
ENDBRANCH  22  23
ENDBRANCH  10  22
ENDBRANCH   7  10
ENDBRANCH   5   6
BRANCH   5  27
ATOM     27  CB  LEU A   3       2.793   0.872   2.598  1.00  0.00     0.038 C 
BRANCH  27  28
ATOM     28  CG  LEU A   3       3.248   2.280   2.127  1.00  0.00    -0.015 C 
ATOM     29  CD1 LEU A   3       2.131   3.335   2.155  1.00  0.00     0.007 C 
ATOM     30  CD2 LEU A   3       3.990   2.278   0.788  1.00  0.00     0.007 C 
ENDBRANCH  27  28
ENDBRANCH   5  27
ENDBRANCH   1   5
BRANCH   3  31
ATOM     31  CA  ALA A   4      -1.018   2.069   0.054  1.00  0.00     0.168 C 
ATOM     32  CB  ALA A   4      -0.895   3.224  -0.949  1.00  0.00     0.041 C 
BRANCH  31  33
ATOM     33  C   ALA A   4      -2.035   1.064  -0.415  1.00  0.00     0.242 C 
ATOM     34  N   ARG A   5      -3.053   0.598   0.480  1.00  0.00    -0.343 N 
ATOM     35  O   ALA A   4      -1.969   0.609  -1.590  1.00  0.00    -0.273 OA
ATOM     36  H   UNL     1      -2.957   0.819   1.498  1.00  0.00     0.164 HD
BRANCH  34  37
ATOM     37  CA  ARG A   5      -4.330   0.057   0.007  1.00  0.00     0.171 C 
BRANCH  37  38
ATOM     38  C   ARG A   5      -5.392   1.116   0.125  1.00  0.00     0.243 C 
ATOM     39  N   ASN A   6      -6.337   1.315  -0.936  1.00  0.00    -0.341 N 
ATOM     40  O   ARG A   5      -5.458   1.817   1.172  1.00  0.00    -0.273 OA
ATOM     41  H   UNL     1      -6.285   0.686  -1.769  1.00  0.00     0.164 HD
BRANCH  39  42
ATOM     42  CA  ASN A   6      -7.171   2.515  -1.024  1.00  0.00     0.201 C 
BRANCH  42  43
ATOM     43  C   ASN A   6      -8.483   2.174  -1.677  1.00  0.00     0.326 C 
ATOM     44  O   ASN A   6      -8.514   1.741  -2.860  1.00  0.00    -0.250 OA
BRANCH  43  45
ATOM     45  OXT ASN A   6      -9.671   2.335  -0.967  1.00  0.00    -0.480 OA
ATOM     46  H   UNL     1     -10.563   2.113  -1.391  1.00  0.00     0.296 HD
ENDBRANCH  43  45
ENDBRANCH  42  43
BRANCH  42  47
ATOM     47  CB  ASN A   6      -6.420   3.606  -1.808  1.00  0.00     0.136 C 
BRANCH  47  48
ATOM     48  CG  ASN A   6      -7.148   4.916  -1.763  1.00  0.00     0.220 C 
ATOM     49  ND2 ASN A   6      -6.980   5.795  -0.651  1.00  0.00    -0.370 N 
ATOM     50  OD1 ASN A   6      -7.936   5.227  -2.695  1.00  0.00    -0.275 OA
ATOM     51  H   UNL     1      -7.500   6.700  -0.615  1.00  0.00     0.159 HD
ATOM     52  H   UNL     1      -6.347   5.540   0.139  1.00  0.00     0.159 HD
ENDBRANCH  47  48
ENDBRANCH  42  47
ENDBRANCH  39  42
ENDBRANCH  37  38
BRANCH  37  53
ATOM     53  CB  ARG A   5      -4.724  -1.184   0.824  1.00  0.00     0.037 C 
BRANCH  53  54
ATOM     54  CG  ARG A   5      -3.781  -2.361   0.544  1.00  0.00     0.024 C 
BRANCH  54  55
ATOM     55  CD  ARG A   5      -4.198  -3.602   1.340  1.00  0.00     0.116 C 
BRANCH  55  56
ATOM     56  NE  ARG A   5      -3.405  -4.765   0.935  1.00  0.00    -0.357 N 
ATOM     57  CZ  ARG A   5      -3.590  -5.504  -0.287  1.00  0.00     0.185 C 
ATOM     58  NH2 ARG A   5      -2.705  -6.584  -0.593  1.00  0.00    -0.370 N 
ATOM     59  H   UNL     1      -2.686  -5.116   1.615  1.00  0.00     0.163 HD
ATOM     60  H   UNL     1      -2.865  -7.182  -1.435  1.00  0.00     0.159 HD
ATOM     61  H   UNL     1      -1.910  -6.813   0.044  1.00  0.00     0.159 HD
BRANCH  57  62
ATOM     62  NH1 ARG A   5      -4.556  -5.233  -1.112  1.00  0.00    -0.270 NA
ATOM     63  H   UNL     1      -5.252  -4.471  -0.963  1.00  0.00     0.191 HD
ENDBRANCH  57  62
ENDBRANCH  55  56
ENDBRANCH  54  55
ENDBRANCH  53  54
ENDBRANCH  37  53
ENDBRANCH  34  37
ENDBRANCH  31  33
ENDBRANCH   3  31
TORSDOF 27
