REMARK SMILES CC(C)C[C@H](NC(=O)CNC(=O)[C@@H](N)CO)C(=O)N[C@@H](CC(=O)O)C(=O)N[C@@H](CCCNC(=N)N)C(=O)N[C@@H](CC(N)=O)C(=O)O
REMARK SMILES IDX 17 1 18 2 19 3 5 5 6 6 7 7 8 8 9 10 10 11 11 12 12 13 13 15
REMARK SMILES IDX 14 16 15 19 16 20 4 22 2 23 1 24 3 25 20 26 25 27 27 28
REMARK SMILES IDX 26 29 28 31 36 32 38 33 37 34 39 36 44 37 45 38 46 39 40 41
REMARK SMILES IDX 41 42 42 43 43 44 29 47 30 48 31 49 32 50 33 51 35 52 34 56
REMARK SMILES IDX 21 58 22 59 23 60 24 61
REMARK H PARENT 19 4 6 9 10 14 14 17 14 18 16 21 27 30 38 35 46 40 42 45 42 46
REMARK H PARENT 32 53 35 54 35 55 34 57 24 62
ROOT
ATOM      1  C   LEU A   3      20.059  10.066  -6.435  1.00  0.00     0.243 C 
ATOM      2  O   LEU A   3      20.210   9.169  -5.564  1.00  0.00    -0.273 OA
ATOM      3  N   ASP A   4      20.560   9.895  -7.756  1.00  0.00    -0.342 N 
ATOM      4  H   UNL     1      20.388  10.636  -8.474  1.00  0.00     0.164 HD
ENDROOT
BRANCH   1   5
ATOM      5  CA  LEU A   3      19.309  11.308  -6.117  1.00  0.00     0.171 C 
BRANCH   5   6
ATOM      6  N   LEU A   3      18.040  10.983  -5.501  1.00  0.00    -0.343 N 
ATOM      7  C   GLY A   2      16.870  11.755  -5.725  1.00  0.00     0.240 C 
ATOM      8  O   GLY A   2      16.908  12.799  -6.436  1.00  0.00    -0.273 OA
ATOM      9  H   UNL     1      17.981  10.164  -4.853  1.00  0.00     0.164 HD
BRANCH   7  10
ATOM     10  CA  GLY A   2      15.629  11.330  -5.018  1.00  0.00     0.216 C 
BRANCH  10  11
ATOM     11  N   GLY A   2      14.441  11.728  -5.744  1.00  0.00    -0.346 N 
ATOM     12  C   SER A   1      13.908  13.045  -5.633  1.00  0.00     0.239 C 
ATOM     13  O   SER A   1      14.441  13.872  -4.842  1.00  0.00    -0.273 OA
ATOM     14  H   UNL     1      13.860  10.962  -6.149  1.00  0.00     0.164 HD
BRANCH  12  15
ATOM     15  CA  SER A   1      12.658  13.406  -6.388  1.00  0.00     0.167 C 
BRANCH  15  16
ATOM     16  N   SER A   1      12.473  14.859  -6.382  1.00  0.00    -0.318 NA
ATOM     17  H   UNL     1      11.541  15.084  -6.801  1.00  0.00     0.119 HD
ATOM     18  H   UNL     1      13.205  15.309  -6.979  1.00  0.00     0.119 HD
ENDBRANCH  15  16
BRANCH  15  19
ATOM     19  CB  SER A   1      12.689  12.867  -7.839  1.00  0.00     0.184 C 
BRANCH  19  20
ATOM     20  OG  SER A   1      11.442  13.041  -8.453  1.00  0.00    -0.394 OA
ATOM     21  H   UNL     1      10.832  12.364  -8.059  1.00  0.00     0.210 HD
ENDBRANCH  19  20
ENDBRANCH  15  19
ENDBRANCH  12  15
ENDBRANCH  10  11
ENDBRANCH   7  10
ENDBRANCH   5   6
BRANCH   5  22
ATOM     22  CB  LEU A   3      20.127  12.329  -5.310  1.00  0.00     0.038 C 
BRANCH  22  23
ATOM     23  CG  LEU A   3      20.417  12.199  -3.790  1.00  0.00    -0.015 C 
ATOM     24  CD1 LEU A   3      21.811  11.747  -3.394  1.00  0.00     0.007 C 
ATOM     25  CD2 LEU A   3      19.284  11.861  -2.839  1.00  0.00     0.007 C 
ENDBRANCH  22  23
ENDBRANCH   5  22
ENDBRANCH   1   5
BRANCH   3  26
ATOM     26  CA  ASP A   4      21.347   8.740  -8.148  1.00  0.00     0.182 C 
BRANCH  26  27
ATOM     27  C   ASP A   4      22.712   9.215  -8.512  1.00  0.00     0.243 C 
ATOM     28  N   ARG A   5      23.821   8.712  -7.784  1.00  0.00    -0.343 N 
ATOM     29  O   ASP A   4      22.875  10.039  -9.454  1.00  0.00    -0.273 OA
ATOM     30  H   UNL     1      23.667   7.986  -7.047  1.00  0.00     0.164 HD
BRANCH  28  31
ATOM     31  CA  ARG A   5      25.184   9.119  -8.071  1.00  0.00     0.171 C 
BRANCH  31  32
ATOM     32  C   ARG A   5      25.901   7.968  -8.685  1.00  0.00     0.243 C 
ATOM     33  N   ASN A   6      25.913   7.865 -10.102  1.00  0.00    -0.341 N 
ATOM     34  O   ARG A   5      26.449   7.087  -7.970  1.00  0.00    -0.273 OA
ATOM     35  H   UNL     1      25.488   8.647 -10.651  1.00  0.00     0.164 HD
BRANCH  33  36
ATOM     36  CA  ASN A   6      26.542   6.752 -10.805  1.00  0.00     0.201 C 
BRANCH  36  37
ATOM     37  C   ASN A   6      27.993   6.642 -10.416  1.00  0.00     0.326 C 
ATOM     38  O   ASN A   6      28.795   7.578 -10.676  1.00  0.00    -0.250 OA
BRANCH  37  39
ATOM     39  OXT ASN A   6      28.450   5.499  -9.768  1.00  0.00    -0.480 OA
ATOM     40  H   UNL     1      29.423   5.408  -9.499  1.00  0.00     0.296 HD
ENDBRANCH  37  39
ENDBRANCH  36  37
BRANCH  36  41
ATOM     41  CB  ASN A   6      26.427   6.949 -12.324  1.00  0.00     0.136 C 
BRANCH  41  42
ATOM     42  CG  ASN A   6      25.014   7.182 -12.778  1.00  0.00     0.220 C 
ATOM     43  ND2 ASN A   6      24.758   8.095 -13.835  1.00  0.00    -0.370 N 
ATOM     44  OD1 ASN A   6      24.058   6.551 -12.258  1.00  0.00    -0.275 OA
ATOM     45  H   UNL     1      25.537   8.611 -14.301  1.00  0.00     0.159 HD
ATOM     46  H   UNL     1      23.780   8.259 -14.162  1.00  0.00     0.159 HD
ENDBRANCH  41  42
ENDBRANCH  36  41
ENDBRANCH  33  36
ENDBRANCH  31  32
BRANCH  31  47
ATOM     47  CB  ARG A   5      25.860   9.603  -6.793  1.00  0.00     0.037 C 
BRANCH  47  48
ATOM     48  CG  ARG A   5      25.164  10.858  -6.269  1.00  0.00     0.024 C 
BRANCH  48  49
ATOM     49  CD  ARG A   5      25.838  11.391  -5.013  1.00  0.00     0.116 C 
BRANCH  49  50
ATOM     50  NE  ARG A   5      25.376  10.687  -3.820  1.00  0.00    -0.357 N 
ATOM     51  CZ  ARG A   5      25.468  11.282  -2.526  1.00  0.00     0.185 C 
ATOM     52  NH2 ARG A   5      26.108  12.546  -2.351  1.00  0.00    -0.370 N 
ATOM     53  H   UNL     1      24.890   9.765  -3.912  1.00  0.00     0.163 HD
ATOM     54  H   UNL     1      26.697  12.982  -3.093  1.00  0.00     0.159 HD
ATOM     55  H   UNL     1      26.081  13.023  -1.423  1.00  0.00     0.159 HD
BRANCH  51  56
ATOM     56  NH1 ARG A   5      24.954  10.672  -1.506  1.00  0.00    -0.270 NA
ATOM     57  H   UNL     1      24.996  11.076  -0.544  1.00  0.00     0.191 HD
ENDBRANCH  51  56
ENDBRANCH  49  50
ENDBRANCH  48  49
ENDBRANCH  47  48
ENDBRANCH  31  47
ENDBRANCH  28  31
ENDBRANCH  26  27
BRANCH  26  58
ATOM     58  CB  ASP A   4      20.671   8.015  -9.317  1.00  0.00     0.157 C 
BRANCH  58  59
ATOM     59  CG  ASP A   4      21.390   6.756  -9.718  1.00  0.00     0.305 C 
ATOM     60  OD1 ASP A   4      22.629   6.760  -9.939  1.00  0.00    -0.252 OA
BRANCH  59  61
ATOM     61  OD2 ASP A   4      20.669   5.576  -9.871  1.00  0.00    -0.481 OA
ATOM     62  H   UNL     1      21.130   4.718 -10.148  1.00  0.00     0.296 HD
ENDBRANCH  59  61
ENDBRANCH  58  59
ENDBRANCH  26  58
ENDBRANCH   3  26
TORSDOF 27
