REMARK SMILES CC(C)C[C@H](NC(=O)[C@@H](NC(=O)[C@H](CCC(N)=O)NC(=O)[C@@H](N)CO)C(C)C)C(=O)N[C@@H](CCCNC(=N)N)C(=O)N[C@@H](CC(N)=O)C(=O)O
REMARK SMILES IDX 7 1 8 2 6 3 9 5 10 6 11 7 12 8 13 10 19 11 20 12 21 13 22 15
REMARK SMILES IDX 23 16 24 19 25 20 14 22 15 23 16 24 17 25 18 26 26 29 27 30
REMARK SMILES IDX 28 31 5 32 29 33 31 34 30 35 32 37 40 38 42 39 41 40 43 42
REMARK SMILES IDX 48 43 49 44 50 45 44 47 45 48 46 49 47 50 33 53 34 54 35 55
REMARK SMILES IDX 36 56 37 57 39 58 38 62 4 64 2 65 1 66 3 67
REMARK H PARENT 6 4 10 9 19 14 23 17 23 18 25 21 17 27 17 28 31 36 42 41 50 46
REMARK H PARENT 46 51 46 52 36 59 39 60 39 61 38 63
ROOT
ATOM      1  C   VAL A   3      20.038  10.090  -6.461  1.00  0.00     0.243 C 
ATOM      2  O   VAL A   3      20.154   9.171  -5.603  1.00  0.00    -0.273 OA
ATOM      3  N   LEU A   4      20.562   9.924  -7.770  1.00  0.00    -0.343 N 
ATOM      4  H   UNL     1      20.400  10.666  -8.489  1.00  0.00     0.164 HD
ENDROOT
BRANCH   1   5
ATOM      5  CA  VAL A   3      19.335  11.365  -6.124  1.00  0.00     0.174 C 
BRANCH   5   6
ATOM      6  N   VAL A   3      18.081  11.042  -5.485  1.00  0.00    -0.342 N 
ATOM      7  C   GLN A   2      16.873  11.742  -5.743  1.00  0.00     0.243 C 
ATOM      8  O   GLN A   2      16.883  12.778  -6.466  1.00  0.00    -0.273 OA
ATOM      9  H   UNL     1      18.154  10.467  -4.620  1.00  0.00     0.164 HD
BRANCH   7  10
ATOM     10  CA  GLN A   2      15.624  11.284  -5.044  1.00  0.00     0.171 C 
BRANCH  10  11
ATOM     11  N   GLN A   2      14.447  11.734  -5.771  1.00  0.00    -0.343 N 
ATOM     12  C   SER A   1      13.912  13.046  -5.637  1.00  0.00     0.239 C 
ATOM     13  O   SER A   1      14.442  13.862  -4.835  1.00  0.00    -0.273 OA
ATOM     14  H   UNL     1      13.896  11.013  -6.283  1.00  0.00     0.164 HD
BRANCH  12  15
ATOM     15  CA  SER A   1      12.660  13.412  -6.392  1.00  0.00     0.167 C 
BRANCH  15  16
ATOM     16  N   SER A   1      12.476  14.864  -6.373  1.00  0.00    -0.318 NA
ATOM     17  H   UNL     1      13.178  15.317  -7.004  1.00  0.00     0.119 HD
ATOM     18  H   UNL     1      11.523  15.094  -6.737  1.00  0.00     0.119 HD
ENDBRANCH  15  16
BRANCH  15  19
ATOM     19  CB  SER A   1      12.685  12.885  -7.850  1.00  0.00     0.184 C 
BRANCH  19  20
ATOM     20  OG  SER A   1      11.432  13.055  -8.451  1.00  0.00    -0.394 OA
ATOM     21  H   UNL     1      11.440  13.945  -8.890  1.00  0.00     0.210 HD
ENDBRANCH  19  20
ENDBRANCH  15  19
ENDBRANCH  12  15
ENDBRANCH  10  11
BRANCH  10  22
ATOM     22  CB  GLN A   2      15.578   9.738  -4.928  1.00  0.00     0.045 C 
BRANCH  22  23
ATOM     23  CG  GLN A   2      14.407   9.266  -4.068  1.00  0.00     0.102 C 
BRANCH  23  24
ATOM     24  CD  GLN A   2      14.384   7.769  -3.980  1.00  0.00     0.217 C 
ATOM     25  NE2 GLN A   2      15.173   7.090  -3.004  1.00  0.00    -0.370 N 
ATOM     26  OE1 GLN A   2      13.696   7.104  -4.800  1.00  0.00    -0.275 OA
ATOM     27  H   UNL     1      15.769   7.626  -2.334  1.00  0.00     0.159 HD
ATOM     28  H   UNL     1      15.167   6.047  -2.954  1.00  0.00     0.159 HD
ENDBRANCH  23  24
ENDBRANCH  22  23
ENDBRANCH  10  22
ENDBRANCH   7  10
ENDBRANCH   5   6
BRANCH   5  29
ATOM     29  CB  VAL A   3      20.200  12.264  -5.209  1.00  0.00     0.015 C 
ATOM     30  CG1 VAL A   3      20.429  11.691  -3.797  1.00  0.00     0.010 C 
ATOM     31  CG2 VAL A   3      19.623  13.683  -5.107  1.00  0.00     0.010 C 
ENDBRANCH   5  29
ENDBRANCH   1   5
BRANCH   3  32
ATOM     32  CA  LEU A   4      21.346   8.762  -8.138  1.00  0.00     0.171 C 
BRANCH  32  33
ATOM     33  C   LEU A   4      22.712   9.217  -8.520  1.00  0.00     0.243 C 
ATOM     34  N   ARG A   5      23.822   8.720  -7.785  1.00  0.00    -0.343 N 
ATOM     35  O   LEU A   4      22.876  10.033  -9.468  1.00  0.00    -0.273 OA
ATOM     36  H   UNL     1      23.666   8.030  -7.015  1.00  0.00     0.164 HD
BRANCH  34  37
ATOM     37  CA  ARG A   5      25.185   9.122  -8.073  1.00  0.00     0.171 C 
BRANCH  37  38
ATOM     38  C   ARG A   5      25.899   7.968  -8.685  1.00  0.00     0.243 C 
ATOM     39  N   ASN A   6      25.913   7.864 -10.102  1.00  0.00    -0.341 N 
ATOM     40  O   ARG A   5      26.447   7.087  -7.969  1.00  0.00    -0.273 OA
ATOM     41  H   UNL     1      25.489   8.647 -10.651  1.00  0.00     0.164 HD
BRANCH  39  42
ATOM     42  CA  ASN A   6      26.542   6.751 -10.804  1.00  0.00     0.201 C 
BRANCH  42  43
ATOM     43  C   ASN A   6      27.993   6.642 -10.416  1.00  0.00     0.326 C 
ATOM     44  O   ASN A   6      28.794   7.579 -10.677  1.00  0.00    -0.250 OA
BRANCH  43  45
ATOM     45  OXT ASN A   6      28.451   5.499  -9.768  1.00  0.00    -0.480 OA
ATOM     46  H   UNL     1      29.424   5.409  -9.499  1.00  0.00     0.296 HD
ENDBRANCH  43  45
ENDBRANCH  42  43
BRANCH  42  47
ATOM     47  CB  ASN A   6      26.424   6.947 -12.323  1.00  0.00     0.136 C 
BRANCH  47  48
ATOM     48  CG  ASN A   6      25.010   7.180 -12.773  1.00  0.00     0.220 C 
ATOM     49  ND2 ASN A   6      24.753   8.090 -13.833  1.00  0.00    -0.370 N 
ATOM     50  OD1 ASN A   6      24.053   6.558 -12.243  1.00  0.00    -0.275 OA
ATOM     51  H   UNL     1      23.775   8.258 -14.156  1.00  0.00     0.159 HD
ATOM     52  H   UNL     1      25.533   8.600 -14.306  1.00  0.00     0.159 HD
ENDBRANCH  47  48
ENDBRANCH  42  47
ENDBRANCH  39  42
ENDBRANCH  37  38
BRANCH  37  53
ATOM     53  CB  ARG A   5      25.862   9.605  -6.795  1.00  0.00     0.037 C 
BRANCH  53  54
ATOM     54  CG  ARG A   5      25.166  10.860  -6.270  1.00  0.00     0.024 C 
BRANCH  54  55
ATOM     55  CD  ARG A   5      25.841  11.391  -5.013  1.00  0.00     0.116 C 
BRANCH  55  56
ATOM     56  NE  ARG A   5      25.377  10.687  -3.820  1.00  0.00    -0.357 N 
ATOM     57  CZ  ARG A   5      25.469  11.282  -2.526  1.00  0.00     0.185 C 
ATOM     58  NH2 ARG A   5      26.109  12.546  -2.351  1.00  0.00    -0.370 N 
ATOM     59  H   UNL     1      24.896   9.762  -3.912  1.00  0.00     0.163 HD
ATOM     60  H   UNL     1      26.699  12.981  -3.092  1.00  0.00     0.159 HD
ATOM     61  H   UNL     1      26.083  13.022  -1.422  1.00  0.00     0.159 HD
BRANCH  57  62
ATOM     62  NH1 ARG A   5      24.956  10.671  -1.506  1.00  0.00    -0.270 NA
ATOM     63  H   UNL     1      24.998  11.075  -0.544  1.00  0.00     0.191 HD
ENDBRANCH  57  62
ENDBRANCH  55  56
ENDBRANCH  54  55
ENDBRANCH  53  54
ENDBRANCH  37  53
ENDBRANCH  34  37
ENDBRANCH  32  33
BRANCH  32  64
ATOM     64  CB  LEU A   4      20.654   8.000  -9.270  1.00  0.00     0.038 C 
BRANCH  64  65
ATOM     65  CG  LEU A   4      21.448   6.772  -9.768  1.00  0.00    -0.015 C 
ATOM     66  CD1 LEU A   4      21.762   5.779  -8.639  1.00  0.00     0.007 C 
ATOM     67  CD2 LEU A   4      20.661   6.068 -10.877  1.00  0.00     0.007 C 
ENDBRANCH  64  65
ENDBRANCH  32  64
ENDBRANCH   3  32
TORSDOF 28
