REMARK SMILES CC(C)C[C@H](NC(=O)[C@@H](NC(=O)[C@H](CCCCN)NC(=O)[C@@H](N)CO)C(C)C)C(=O)N[C@@H](CCCNC(=N)N)C(=O)N[C@@H](CC(N)=O)C(=O)O
REMARK SMILES IDX 7 1 8 2 6 3 9 5 10 6 11 7 12 8 13 10 19 11 20 12 21 13 22 15
REMARK SMILES IDX 23 16 24 19 25 20 14 22 15 23 16 24 17 25 18 26 26 29 27 30
REMARK SMILES IDX 28 31 5 32 29 33 31 34 30 35 32 37 40 38 42 39 41 40 43 42
REMARK SMILES IDX 48 43 49 44 50 45 44 47 45 48 46 49 47 50 33 53 34 54 35 55
REMARK SMILES IDX 36 56 37 57 39 58 38 62 4 64 2 65 1 66 3 67
REMARK H PARENT 6 4 10 9 19 14 23 17 23 18 25 21 18 27 18 28 31 36 42 41 50 46
REMARK H PARENT 46 51 46 52 36 59 39 60 39 61 38 63
ROOT
ATOM      1  C   VAL A   3      20.043  10.089  -6.459  1.00  0.00     0.243 C 
ATOM      2  O   VAL A   3      20.163   9.174  -5.597  1.00  0.00    -0.273 OA
ATOM      3  N   LEU A   4      20.562   9.922  -7.769  1.00  0.00    -0.343 N 
ATOM      4  H   UNL     1      20.399  10.664  -8.488  1.00  0.00     0.164 HD
ENDROOT
BRANCH   1   5
ATOM      5  CA  VAL A   3      19.333  11.361  -6.128  1.00  0.00     0.174 C 
BRANCH   5   6
ATOM      6  N   VAL A   3      18.077  11.029  -5.500  1.00  0.00    -0.342 N 
ATOM      7  C   LYS A   2      16.874  11.742  -5.742  1.00  0.00     0.243 C 
ATOM      8  O   LYS A   2      16.889  12.787  -6.453  1.00  0.00    -0.273 OA
ATOM      9  H   UNL     1      18.148  10.435  -4.649  1.00  0.00     0.164 HD
BRANCH   7  10
ATOM     10  CA  LYS A   2      15.623  11.284  -5.044  1.00  0.00     0.171 C 
BRANCH  10  11
ATOM     11  N   LYS A   2      14.446  11.733  -5.772  1.00  0.00    -0.343 N 
ATOM     12  C   SER A   1      13.912  13.045  -5.638  1.00  0.00     0.239 C 
ATOM     13  O   SER A   1      14.447  13.862  -4.838  1.00  0.00    -0.273 OA
ATOM     14  H   UNL     1      13.888  11.012  -6.275  1.00  0.00     0.164 HD
BRANCH  12  15
ATOM     15  CA  SER A   1      12.654  13.410  -6.390  1.00  0.00     0.167 C 
BRANCH  15  16
ATOM     16  N   SER A   1      12.468  14.862  -6.381  1.00  0.00    -0.318 NA
ATOM     17  H   UNL     1      12.302  15.168  -5.394  1.00  0.00     0.119 HD
ATOM     18  H   UNL     1      11.584  15.092  -6.890  1.00  0.00     0.119 HD
ENDBRANCH  15  16
BRANCH  15  19
ATOM     19  CB  SER A   1      12.696  12.903  -7.851  1.00  0.00     0.184 C 
BRANCH  19  20
ATOM     20  OG  SER A   1      11.435  13.047  -8.442  1.00  0.00    -0.394 OA
ATOM     21  H   UNL     1      11.545  12.803  -9.397  1.00  0.00     0.210 HD
ENDBRANCH  19  20
ENDBRANCH  15  19
ENDBRANCH  12  15
ENDBRANCH  10  11
BRANCH  10  22
ATOM     22  CB  LYS A   2      15.574   9.737  -4.926  1.00  0.00     0.035 C 
BRANCH  22  23
ATOM     23  CG  LYS A   2      14.401   9.266  -4.067  1.00  0.00     0.004 C 
BRANCH  23  24
ATOM     24  CD  LYS A   2      14.363   7.733  -3.971  1.00  0.00     0.015 C 
BRANCH  24  25
ATOM     25  CE  LYS A   2      13.170   7.241  -3.143  1.00  0.00     0.077 C 
BRANCH  25  26
ATOM     26  NZ  LYS A   2      13.292   7.665  -1.751  1.00  0.00    -0.330 NA
ATOM     27  H   UNL     1      12.426   7.360  -1.249  1.00  0.00     0.118 HD
ATOM     28  H   UNL     1      14.086   7.140  -1.318  1.00  0.00     0.118 HD
ENDBRANCH  25  26
ENDBRANCH  24  25
ENDBRANCH  23  24
ENDBRANCH  22  23
ENDBRANCH  10  22
ENDBRANCH   7  10
ENDBRANCH   5   6
BRANCH   5  29
ATOM     29  CB  VAL A   3      20.152  12.286  -5.200  1.00  0.00     0.015 C 
ATOM     30  CG1 VAL A   3      20.450  11.685  -3.811  1.00  0.00     0.010 C 
ATOM     31  CG2 VAL A   3      21.452  12.743  -5.878  1.00  0.00     0.010 C 
ENDBRANCH   5  29
ENDBRANCH   1   5
BRANCH   3  32
ATOM     32  CA  LEU A   4      21.348   8.761  -8.138  1.00  0.00     0.171 C 
BRANCH  32  33
ATOM     33  C   LEU A   4      22.713   9.217  -8.519  1.00  0.00     0.243 C 
ATOM     34  N   ARG A   5      23.823   8.721  -7.785  1.00  0.00    -0.343 N 
ATOM     35  O   LEU A   4      22.876  10.033  -9.467  1.00  0.00    -0.273 OA
ATOM     36  H   UNL     1      23.668   8.031  -7.014  1.00  0.00     0.164 HD
BRANCH  34  37
ATOM     37  CA  ARG A   5      25.186   9.122  -8.074  1.00  0.00     0.171 C 
BRANCH  37  38
ATOM     38  C   ARG A   5      25.900   7.967  -8.686  1.00  0.00     0.243 C 
ATOM     39  N   ASN A   6      25.913   7.864 -10.103  1.00  0.00    -0.341 N 
ATOM     40  O   ARG A   5      26.447   7.086  -7.970  1.00  0.00    -0.273 OA
ATOM     41  H   UNL     1      25.489   8.647 -10.651  1.00  0.00     0.164 HD
BRANCH  39  42
ATOM     42  CA  ASN A   6      26.542   6.750 -10.804  1.00  0.00     0.201 C 
BRANCH  42  43
ATOM     43  C   ASN A   6      27.993   6.642 -10.416  1.00  0.00     0.326 C 
ATOM     44  O   ASN A   6      28.794   7.579 -10.677  1.00  0.00    -0.250 OA
BRANCH  43  45
ATOM     45  OXT ASN A   6      28.451   5.499  -9.769  1.00  0.00    -0.480 OA
ATOM     46  H   UNL     1      29.424   5.409  -9.500  1.00  0.00     0.296 HD
ENDBRANCH  43  45
ENDBRANCH  42  43
BRANCH  42  47
ATOM     47  CB  ASN A   6      26.424   6.946 -12.324  1.00  0.00     0.136 C 
BRANCH  47  48
ATOM     48  CG  ASN A   6      25.010   7.180 -12.773  1.00  0.00     0.220 C 
ATOM     49  ND2 ASN A   6      24.753   8.090 -13.833  1.00  0.00    -0.370 N 
ATOM     50  OD1 ASN A   6      24.053   6.558 -12.243  1.00  0.00    -0.275 OA
ATOM     51  H   UNL     1      25.533   8.600 -14.306  1.00  0.00     0.159 HD
ATOM     52  H   UNL     1      23.774   8.258 -14.156  1.00  0.00     0.159 HD
ENDBRANCH  47  48
ENDBRANCH  42  47
ENDBRANCH  39  42
ENDBRANCH  37  38
BRANCH  37  53
ATOM     53  CB  ARG A   5      25.867   9.605  -6.798  1.00  0.00     0.037 C 
BRANCH  53  54
ATOM     54  CG  ARG A   5      25.166  10.854  -6.267  1.00  0.00     0.024 C 
BRANCH  54  55
ATOM     55  CD  ARG A   5      25.841  11.389  -5.013  1.00  0.00     0.116 C 
BRANCH  55  56
ATOM     56  NE  ARG A   5      25.379  10.686  -3.819  1.00  0.00    -0.357 N 
ATOM     57  CZ  ARG A   5      25.469  11.282  -2.526  1.00  0.00     0.185 C 
ATOM     58  NH2 ARG A   5      26.108  12.547  -2.351  1.00  0.00    -0.370 N 
ATOM     59  H   UNL     1      24.903   9.759  -3.909  1.00  0.00     0.163 HD
ATOM     60  H   UNL     1      26.082  13.024  -1.423  1.00  0.00     0.159 HD
ATOM     61  H   UNL     1      26.697  12.983  -3.094  1.00  0.00     0.159 HD
BRANCH  57  62
ATOM     62  NH1 ARG A   5      24.956  10.672  -1.506  1.00  0.00    -0.270 NA
ATOM     63  H   UNL     1      24.997  11.077  -0.544  1.00  0.00     0.191 HD
ENDBRANCH  57  62
ENDBRANCH  55  56
ENDBRANCH  54  55
ENDBRANCH  53  54
ENDBRANCH  37  53
ENDBRANCH  34  37
ENDBRANCH  32  33
BRANCH  32  64
ATOM     64  CB  LEU A   4      20.655   8.000  -9.270  1.00  0.00     0.038 C 
BRANCH  64  65
ATOM     65  CG  LEU A   4      21.448   6.772  -9.768  1.00  0.00    -0.015 C 
ATOM     66  CD1 LEU A   4      21.762   5.779  -8.639  1.00  0.00     0.007 C 
ATOM     67  CD2 LEU A   4      20.661   6.068 -10.877  1.00  0.00     0.007 C 
ENDBRANCH  64  65
ENDBRANCH  32  64
ENDBRANCH   3  32
TORSDOF 30
