REMARK SMILES CC(C)C[C@H](NC(=O)[C@H](CCC(N)=O)NC(=O)[C@H](Cc1ccccc1)NC(=O)[C@@H](N)CO)C(=O)N[C@@H](CCCNC(=N)N)C(=O)N[C@@H](CC(N)=O)C(=O)O
REMARK SMILES IDX 7 1 8 2 6 3 9 5 15 6 16 7 17 8 18 10 26 11 27 12 28 13 29 15
REMARK SMILES IDX 30 16 31 19 32 20 19 22 20 23 21 24 25 25 22 26 24 27 23 28
REMARK SMILES IDX 10 29 11 30 12 31 13 32 14 33 5 36 33 37 35 38 34 39 36 41
REMARK SMILES IDX 44 42 46 43 45 44 47 46 52 47 53 48 54 49 48 51 49 52 50 53
REMARK SMILES IDX 51 54 37 57 38 58 39 59 40 60 41 61 43 62 42 66 4 68 2 69
REMARK SMILES IDX 1 70 3 71
REMARK H PARENT 6 4 15 9 26 14 30 17 30 18 32 21 13 34 13 35 35 40 46 45 54 50
REMARK H PARENT 50 55 50 56 40 63 43 64 43 65 42 67
ROOT
ATOM      1  C   GLN A   3       1.162   0.324  -0.780  1.00  0.00     0.243 C 
ATOM      2  O   GLN A   3       1.084   0.945  -1.878  1.00  0.00    -0.273 OA
ATOM      3  N   LEU A   4       0.518  -0.952  -0.627  1.00  0.00    -0.343 N 
ATOM      4  H   UNL     1       0.705  -1.506   0.236  1.00  0.00     0.164 HD
ENDROOT
BRANCH   1   5
ATOM      5  CA  GLN A   3       1.855   0.965   0.388  1.00  0.00     0.171 C 
BRANCH   5   6
ATOM      6  N   GLN A   3       3.006   1.745  -0.080  1.00  0.00    -0.342 N 
ATOM      7  C   PHE A   2       4.351   1.250  -0.025  1.00  0.00     0.243 C 
ATOM      8  O   PHE A   2       4.619   0.208   0.635  1.00  0.00    -0.273 OA
ATOM      9  H   UNL     1       2.824   2.621  -0.619  1.00  0.00     0.164 HD
BRANCH   7  10
ATOM     10  CA  PHE A   2       5.438   1.935  -0.813  1.00  0.00     0.175 C 
BRANCH  10  11
ATOM     11  N   PHE A   2       6.740   1.759  -0.157  1.00  0.00    -0.343 N 
ATOM     12  C   SER A   1       7.084   2.462   1.047  1.00  0.00     0.239 C 
ATOM     13  O   SER A   1       6.276   3.296   1.534  1.00  0.00    -0.273 OA
ATOM     14  H   UNL     1       7.432   1.097  -0.564  1.00  0.00     0.164 HD
BRANCH  12  15
ATOM     15  CA  SER A   1       8.398   2.220   1.756  1.00  0.00     0.167 C 
BRANCH  15  16
ATOM     16  N   SER A   1       8.535   0.825   2.182  1.00  0.00    -0.318 NA
ATOM     17  H   UNL     1       7.774   0.613   2.870  1.00  0.00     0.119 HD
ATOM     18  H   UNL     1       8.400   0.186   1.365  1.00  0.00     0.119 HD
ENDBRANCH  15  16
BRANCH  15  19
ATOM     19  CB  SER A   1       9.608   2.661   0.914  1.00  0.00     0.184 C 
BRANCH  19  20
ATOM     20  OG  SER A   1       9.780   1.860  -0.225  1.00  0.00    -0.394 OA
ATOM     21  H   UNL     1      10.314   1.072   0.059  1.00  0.00     0.210 HD
ENDBRANCH  19  20
ENDBRANCH  15  19
ENDBRANCH  12  15
ENDBRANCH  10  11
BRANCH  10  22
ATOM     22  CB  PHE A   2       5.468   1.449  -2.280  1.00  0.00     0.070 C 
BRANCH  22  23
ATOM     23  CG  PHE A   2       5.656  -0.044  -2.438  1.00  0.00    -0.045 A 
ATOM     24  CD1 PHE A   2       4.551  -0.911  -2.368  1.00  0.00     0.004 A 
ATOM     25  CD2 PHE A   2       6.936  -0.587  -2.644  1.00  0.00     0.004 A 
ATOM     26  CE1 PHE A   2       4.726  -2.293  -2.488  1.00  0.00     0.000 A 
ATOM     27  CE2 PHE A   2       7.107  -1.970  -2.756  1.00  0.00     0.000 A 
ATOM     28  CZ  PHE A   2       6.003  -2.821  -2.685  1.00  0.00     0.000 A 
ENDBRANCH  22  23
ENDBRANCH  10  22
ENDBRANCH   7  10
ENDBRANCH   5   6
BRANCH   5  29
ATOM     29  CB  GLN A   3       0.856   1.868   1.132  1.00  0.00     0.045 C 
BRANCH  29  30
ATOM     30  CG  GLN A   3       1.462   2.556   2.362  1.00  0.00     0.102 C 
BRANCH  30  31
ATOM     31  CD  GLN A   3       1.902   1.559   3.396  1.00  0.00     0.217 C 
ATOM     32  NE2 GLN A   3       3.287   1.426   3.726  1.00  0.00    -0.370 N 
ATOM     33  OE1 GLN A   3       1.047   0.849   3.989  1.00  0.00    -0.275 OA
ATOM     34  H   UNL     1       3.590   0.714   4.428  1.00  0.00     0.159 HD
ATOM     35  H   UNL     1       4.008   2.014   3.254  1.00  0.00     0.159 HD
ENDBRANCH  30  31
ENDBRANCH  29  30
ENDBRANCH   5  29
ENDBRANCH   1   5
BRANCH   3  36
ATOM     36  CA  LEU A   4      -0.422  -1.461  -1.631  1.00  0.00     0.171 C 
BRANCH  36  37
ATOM     37  C   LEU A   4      -1.626  -0.557  -1.679  1.00  0.00     0.243 C 
ATOM     38  N   ARG A   5      -2.488  -0.432  -0.537  1.00  0.00    -0.343 N 
ATOM     39  O   LEU A   4      -1.842   0.129  -2.716  1.00  0.00    -0.273 OA
ATOM     40  H   UNL     1      -2.239  -0.962   0.326  1.00  0.00     0.164 HD
BRANCH  38  41
ATOM     41  CA  ARG A   5      -3.776   0.268  -0.608  1.00  0.00     0.171 C 
BRANCH  41  42
ATOM     42  C   ARG A   5      -4.206   0.812   0.735  1.00  0.00     0.243 C 
ATOM     43  N   ASN A   6      -5.297   1.745   0.797  1.00  0.00    -0.341 N 
ATOM     44  O   ARG A   5      -3.608   0.463   1.792  1.00  0.00    -0.273 OA
ATOM     45  H   UNL     1      -5.787   1.995  -0.093  1.00  0.00     0.164 HD
BRANCH  43  46
ATOM     46  CA  ASN A   6      -5.829   2.275   2.059  1.00  0.00     0.201 C 
BRANCH  46  47
ATOM     47  C   ASN A   6      -7.060   1.509   2.443  1.00  0.00     0.326 C 
ATOM     48  O   ASN A   6      -7.990   1.343   1.608  1.00  0.00    -0.250 OA
BRANCH  47  49
ATOM     49  OXT ASN A   6      -7.190   1.008   3.735  1.00  0.00    -0.480 OA
ATOM     50  H   UNL     1      -8.020   0.502   4.014  1.00  0.00     0.296 HD
ENDBRANCH  47  49
ENDBRANCH  46  47
BRANCH  46  51
ATOM     51  CB  ASN A   6      -6.156   3.776   1.925  1.00  0.00     0.136 C 
BRANCH  51  52
ATOM     52  CG  ASN A   6      -4.916   4.618   1.775  1.00  0.00     0.220 C 
ATOM     53  ND2 ASN A   6      -4.783   5.843   2.500  1.00  0.00    -0.370 N 
ATOM     54  OD1 ASN A   6      -4.009   4.276   0.968  1.00  0.00    -0.275 OA
ATOM     55  H   UNL     1      -3.928   6.428   2.387  1.00  0.00     0.159 HD
ATOM     56  H   UNL     1      -5.536   6.174   3.143  1.00  0.00     0.159 HD
ENDBRANCH  51  52
ENDBRANCH  46  51
ENDBRANCH  43  46
ENDBRANCH  41  42
BRANCH  41  57
ATOM     57  CB  ARG A   5      -4.847  -0.635  -1.258  1.00  0.00     0.037 C 
BRANCH  57  58
ATOM     58  CG  ARG A   5      -5.102  -1.977  -0.544  1.00  0.00     0.024 C 
BRANCH  58  59
ATOM     59  CD  ARG A   5      -5.976  -1.825   0.712  1.00  0.00     0.116 C 
BRANCH  59  60
ATOM     60  NE  ARG A   5      -6.665  -3.077   1.018  1.00  0.00    -0.357 N 
ATOM     61  CZ  ARG A   5      -7.819  -3.521   0.288  1.00  0.00     0.185 C 
ATOM     62  NH2 ARG A   5      -8.406  -4.788   0.594  1.00  0.00    -0.370 N 
ATOM     63  H   UNL     1      -6.353  -3.630   1.847  1.00  0.00     0.163 HD
ATOM     64  H   UNL     1      -9.231  -5.138   0.055  1.00  0.00     0.159 HD
ATOM     65  H   UNL     1      -7.982  -5.406   1.322  1.00  0.00     0.159 HD
BRANCH  61  66
ATOM     66  NH1 ARG A   5      -8.328  -2.776  -0.642  1.00  0.00    -0.270 NA
ATOM     67  H   UNL     1      -9.166  -3.073  -1.188  1.00  0.00     0.191 HD
ENDBRANCH  61  66
ENDBRANCH  59  60
ENDBRANCH  58  59
ENDBRANCH  57  58
ENDBRANCH  41  57
ENDBRANCH  38  41
ENDBRANCH  36  37
BRANCH  36  68
ATOM     68  CB  LEU A   4      -0.816  -2.923  -1.314  1.00  0.00     0.038 C 
BRANCH  68  69
ATOM     69  CG  LEU A   4      -1.859  -3.528  -2.289  1.00  0.00    -0.015 C 
ATOM     70  CD1 LEU A   4      -2.382  -4.862  -1.742  1.00  0.00     0.007 C 
ATOM     71  CD2 LEU A   4      -1.275  -3.733  -3.693  1.00  0.00     0.007 C 
ENDBRANCH  68  69
ENDBRANCH  36  68
ENDBRANCH   3  36
TORSDOF 29
