REMARK SMILES CC(C)C[C@H](NC(=O)[C@H](Cc1ccccc1)NC(=O)[C@@H](N)CO)C(=O)N[C@@H](CCCCN)C(=O)N[C@@H](CCCNC(=N)N)C(=O)N[C@@H](CCCNC(=N)N)C(=O)O
REMARK SMILES IDX 33 1 34 2 35 3 27 5 26 6 24 7 25 8 5 10 6 11 7 12 8 13 9 15
REMARK SMILES IDX 17 16 18 17 19 18 20 20 21 21 22 24 23 25 10 27 11 28 12 29
REMARK SMILES IDX 16 30 13 31 15 32 14 33 4 34 2 35 1 36 3 37 28 38 29 39
REMARK SMILES IDX 30 40 31 41 32 42 36 45 44 46 46 47 45 48 47 50 55 51 56 52
REMARK SMILES IDX 57 53 48 55 49 56 50 57 51 58 52 59 54 60 53 64 37 66 38 67
REMARK SMILES IDX 39 68 40 69 41 70 43 71 42 75
REMARK H PARENT 35 4 26 9 6 14 17 19 21 22 21 23 23 26 32 43 32 44 46 49 57 54
REMARK H PARENT 51 61 54 62 54 63 53 65 40 72 43 73 43 74 42 76
ROOT
ATOM      1  C   LYS A   4       1.806  -0.422  -0.277  1.00  0.00     0.243 C 
ATOM      2  O   LYS A   4       2.155   0.724   0.124  1.00  0.00    -0.273 OA
ATOM      3  N   ARG A   5       2.717  -1.526  -0.170  1.00  0.00    -0.343 N 
ATOM      4  H   UNL     1       2.411  -2.459  -0.530  1.00  0.00     0.164 HD
ENDROOT
BRANCH   1   5
ATOM      5  CA  LYS A   4       0.448  -0.621  -0.897  1.00  0.00     0.171 C 
BRANCH   5   6
ATOM      6  N   LYS A   4      -0.456   0.459  -0.491  1.00  0.00    -0.343 N 
ATOM      7  C   LEU A   3      -1.426   0.319   0.557  1.00  0.00     0.243 C 
ATOM      8  O   LEU A   3      -1.547  -0.775   1.173  1.00  0.00    -0.273 OA
ATOM      9  H   UNL     1      -0.311   1.405  -0.915  1.00  0.00     0.164 HD
BRANCH   7  10
ATOM     10  CA  LEU A   3      -2.256   1.504   0.967  1.00  0.00     0.171 C 
BRANCH  10  11
ATOM     11  N   LEU A   3      -3.635   1.077   1.223  1.00  0.00    -0.343 N 
ATOM     12  C   PHE A   2      -4.545   0.771   0.155  1.00  0.00     0.243 C 
ATOM     13  O   PHE A   2      -4.097   0.479  -0.986  1.00  0.00    -0.273 OA
ATOM     14  H   UNL     1      -4.003   1.089   2.196  1.00  0.00     0.164 HD
BRANCH  12  15
ATOM     15  CA  PHE A   2      -6.030   0.808   0.416  1.00  0.00     0.175 C 
BRANCH  15  16
ATOM     16  N   PHE A   2      -6.798   0.883  -0.837  1.00  0.00    -0.343 N 
ATOM     17  C   SER A   1      -6.973  -0.204  -1.767  1.00  0.00     0.239 C 
ATOM     18  O   SER A   1      -6.362  -1.295  -1.591  1.00  0.00    -0.273 OA
ATOM     19  H   UNL     1      -7.223   1.805  -1.075  1.00  0.00     0.164 HD
BRANCH  17  20
ATOM     20  CA  SER A   1      -7.841  -0.015  -2.998  1.00  0.00     0.167 C 
BRANCH  20  21
ATOM     21  N   SER A   1      -7.876  -1.218  -3.840  1.00  0.00    -0.318 NA
ATOM     22  H   UNL     1      -8.202  -2.033  -3.270  1.00  0.00     0.119 HD
ATOM     23  H   UNL     1      -6.907  -1.431  -4.175  1.00  0.00     0.119 HD
ENDBRANCH  20  21
BRANCH  20  24
ATOM     24  CB  SER A   1      -9.275   0.397  -2.625  1.00  0.00     0.184 C 
BRANCH  24  25
ATOM     25  OG  SER A   1      -9.889  -0.595  -1.845  1.00  0.00    -0.394 OA
ATOM     26  H   UNL     1     -10.778  -0.227  -1.594  1.00  0.00     0.210 HD
ENDBRANCH  24  25
ENDBRANCH  20  24
ENDBRANCH  17  20
ENDBRANCH  15  16
BRANCH  15  27
ATOM     27  CB  PHE A   2      -6.476  -0.357   1.323  1.00  0.00     0.070 C 
BRANCH  27  28
ATOM     28  CG  PHE A   2      -7.946  -0.278   1.651  1.00  0.00    -0.045 A 
ATOM     29  CD1 PHE A   2      -8.420   0.710   2.528  1.00  0.00     0.004 A 
ATOM     30  CD2 PHE A   2      -8.857  -1.181   1.076  1.00  0.00     0.004 A 
ATOM     31  CE1 PHE A   2      -9.785   0.792   2.827  1.00  0.00     0.000 A 
ATOM     32  CE2 PHE A   2     -10.221  -1.097   1.380  1.00  0.00     0.000 A 
ATOM     33  CZ  PHE A   2     -10.684  -0.111   2.256  1.00  0.00     0.000 A 
ENDBRANCH  27  28
ENDBRANCH  15  27
ENDBRANCH  12  15
ENDBRANCH  10  11
BRANCH  10  34
ATOM     34  CB  LEU A   3      -1.626   2.172   2.214  1.00  0.00     0.038 C 
BRANCH  34  35
ATOM     35  CG  LEU A   3      -2.055   3.639   2.484  1.00  0.00    -0.015 C 
ATOM     36  CD1 LEU A   3      -1.626   4.598   1.360  1.00  0.00     0.007 C 
ATOM     37  CD2 LEU A   3      -3.550   3.789   2.789  1.00  0.00     0.007 C 
ENDBRANCH  34  35
ENDBRANCH  10  34
ENDBRANCH   7  10
ENDBRANCH   5   6
BRANCH   5  38
ATOM     38  CB  LYS A   4       0.568  -0.665  -2.433  1.00  0.00     0.035 C 
BRANCH  38  39
ATOM     39  CG  LYS A   4      -0.785  -0.778  -3.166  1.00  0.00     0.004 C 
BRANCH  39  40
ATOM     40  CD  LYS A   4      -1.607  -2.034  -2.827  1.00  0.00     0.015 C 
BRANCH  40  41
ATOM     41  CE  LYS A   4      -0.890  -3.335  -3.209  1.00  0.00     0.077 C 
BRANCH  41  42
ATOM     42  NZ  LYS A   4      -1.799  -4.470  -3.085  1.00  0.00    -0.330 NA
ATOM     43  H   UNL     1      -1.285  -5.323  -3.404  1.00  0.00     0.118 HD
ATOM     44  H   UNL     1      -1.995  -4.614  -2.067  1.00  0.00     0.118 HD
ENDBRANCH  41  42
ENDBRANCH  40  41
ENDBRANCH  39  40
ENDBRANCH  38  39
ENDBRANCH   5  38
ENDBRANCH   1   5
BRANCH   3  45
ATOM     45  CA  ARG A   5       4.080  -1.353   0.343  1.00  0.00     0.171 C 
BRANCH  45  46
ATOM     46  C   ARG A   5       4.914  -0.617  -0.670  1.00  0.00     0.243 C 
ATOM     47  N   ARG A   6       5.695   0.525  -0.276  1.00  0.00    -0.341 N 
ATOM     48  O   ARG A   5       4.939  -1.022  -1.866  1.00  0.00    -0.273 OA
ATOM     49  H   UNL     1       5.584   0.889   0.697  1.00  0.00     0.164 HD
BRANCH  47  50
ATOM     50  CA  ARG A   6       6.582   1.219  -1.219  1.00  0.00     0.192 C 
BRANCH  50  51
ATOM     51  C   ARG A   6       7.731   0.334  -1.624  1.00  0.00     0.326 C 
ATOM     52  O   ARG A   6       8.232  -0.480  -0.800  1.00  0.00    -0.250 OA
BRANCH  51  53
ATOM     53  OXT ARG A   6       8.272   0.447  -2.902  1.00  0.00    -0.480 OA
ATOM     54  H   UNL     1       9.057  -0.126  -3.185  1.00  0.00     0.296 HD
ENDBRANCH  51  53
ENDBRANCH  50  51
BRANCH  50  55
ATOM     55  CB  ARG A   6       7.077   2.567  -0.650  1.00  0.00     0.039 C 
BRANCH  55  56
ATOM     56  CG  ARG A   6       8.097   2.433   0.501  1.00  0.00     0.024 C 
BRANCH  56  57
ATOM     57  CD  ARG A   6       8.430   3.789   1.134  1.00  0.00     0.116 C 
BRANCH  57  58
ATOM     58  NE  ARG A   6       9.174   4.655   0.215  1.00  0.00    -0.357 N 
ATOM     59  CZ  ARG A   6       9.579   5.997   0.543  1.00  0.00     0.185 C 
ATOM     60  NH2 ARG A   6      10.253   6.785  -0.438  1.00  0.00    -0.370 N 
ATOM     61  H   UNL     1       9.443   4.289  -0.728  1.00  0.00     0.163 HD
ATOM     62  H   UNL     1      10.457   6.397  -1.385  1.00  0.00     0.159 HD
ATOM     63  H   UNL     1      10.548   7.761  -0.222  1.00  0.00     0.159 HD
BRANCH  59  64
ATOM     64  NH1 ARG A   6       9.360   6.506   1.715  1.00  0.00    -0.270 NA
ATOM     65  H   UNL     1       8.878   5.995   2.487  1.00  0.00     0.191 HD
ENDBRANCH  59  64
ENDBRANCH  57  58
ENDBRANCH  56  57
ENDBRANCH  55  56
ENDBRANCH  50  55
ENDBRANCH  47  50
ENDBRANCH  45  46
BRANCH  45  66
ATOM     66  CB  ARG A   5       4.734  -2.714   0.661  1.00  0.00     0.037 C 
BRANCH  66  67
ATOM     67  CG  ARG A   5       4.029  -3.438   1.821  1.00  0.00     0.024 C 
BRANCH  67  68
ATOM     68  CD  ARG A   5       4.777  -4.711   2.241  1.00  0.00     0.116 C 
BRANCH  68  69
ATOM     69  NE  ARG A   5       4.701  -5.751   1.212  1.00  0.00    -0.357 N 
ATOM     70  CZ  ARG A   5       5.388  -7.010   1.311  1.00  0.00     0.185 C 
ATOM     71  NH2 ARG A   5       5.335  -7.928   0.217  1.00  0.00    -0.370 N 
ATOM     72  H   UNL     1       4.126  -5.582   0.355  1.00  0.00     0.163 HD
ATOM     73  H   UNL     1       5.835  -8.844   0.263  1.00  0.00     0.159 HD
ATOM     74  H   UNL     1       4.792  -7.693  -0.646  1.00  0.00     0.159 HD
BRANCH  70  75
ATOM     75  NH1 ARG A   5       6.050  -7.340   2.376  1.00  0.00    -0.270 NA
ATOM     76  H   UNL     1       6.125  -6.731   3.221  1.00  0.00     0.191 HD
ENDBRANCH  70  75
ENDBRANCH  68  69
ENDBRANCH  67  68
ENDBRANCH  66  67
ENDBRANCH  45  66
ENDBRANCH   3  45
TORSDOF 34
