REMARK SMILES C[C@H](NC(=O)[C@H](Cc1c[nH]cn1)NC(=O)[C@H](Cc1ccccc1)NC(=O)[C@@H](N)CO)C(=O)N[C@@H](CCCNC(=N)N)C(=O)N[C@@H](CC(N)=O)C(=O)O
REMARK SMILES IDX 4 1 5 2 3 3 6 5 13 6 14 7 15 8 16 10 24 11 25 12 26 13 27 15
REMARK SMILES IDX 28 16 29 19 30 20 17 22 18 23 19 24 23 25 20 26 22 27 21 28
REMARK SMILES IDX 7 29 8 30 12 31 9 32 11 33 10 34 2 36 1 37 31 38 33 39 32 40
REMARK SMILES IDX 34 42 42 43 44 44 43 45 45 47 50 48 51 49 52 50 46 52 47 53
REMARK SMILES IDX 48 54 49 55 35 58 36 59 37 60 38 61 39 62 41 63 40 67
REMARK H PARENT 3 4 13 9 24 14 28 17 28 18 30 21 10 35 33 41 44 46 52 51 48 56
REMARK H PARENT 48 57 38 64 41 65 41 66 40 68
ROOT
ATOM      1  C   HIS A   3      20.054  10.089  -6.461  1.00  0.00     0.243 C 
ATOM      2  O   HIS A   3      20.174   9.178  -5.597  1.00  0.00    -0.273 OA
ATOM      3  N   ALA A   4      20.558   9.910  -7.776  1.00  0.00    -0.343 N 
ATOM      4  H   UNL     1      20.392  10.650  -8.496  1.00  0.00     0.164 HD
ENDROOT
BRANCH   1   5
ATOM      5  CA  HIS A   3      19.349  11.364  -6.132  1.00  0.00     0.177 C 
BRANCH   5   6
ATOM      6  N   HIS A   3      18.091  11.042  -5.510  1.00  0.00    -0.342 N 
ATOM      7  C   PHE A   2      16.889  11.748  -5.774  1.00  0.00     0.243 C 
ATOM      8  O   PHE A   2      16.905  12.792  -6.482  1.00  0.00    -0.273 OA
ATOM      9  H   UNL     1      18.166  10.480  -4.637  1.00  0.00     0.164 HD
BRANCH   7  10
ATOM     10  CA  PHE A   2      15.654  11.312  -5.058  1.00  0.00     0.175 C 
BRANCH  10  11
ATOM     11  N   PHE A   2      14.457  11.739  -5.768  1.00  0.00    -0.343 N 
ATOM     12  C   SER A   1      13.917  13.048  -5.634  1.00  0.00     0.239 C 
ATOM     13  O   SER A   1      14.447  13.866  -4.833  1.00  0.00    -0.273 OA
ATOM     14  H   UNL     1      13.870  10.999  -6.212  1.00  0.00     0.164 HD
BRANCH  12  15
ATOM     15  CA  SER A   1      12.661  13.409  -6.390  1.00  0.00     0.167 C 
BRANCH  15  16
ATOM     16  N   SER A   1      12.454  14.859  -6.401  1.00  0.00    -0.318 NA
ATOM     17  H   UNL     1      13.315  15.336  -6.757  1.00  0.00     0.119 HD
ATOM     18  H   UNL     1      12.284  15.188  -5.423  1.00  0.00     0.119 HD
ENDBRANCH  15  16
BRANCH  15  19
ATOM     19  CB  SER A   1      12.693  12.886  -7.842  1.00  0.00     0.184 C 
BRANCH  19  20
ATOM     20  OG  SER A   1      11.438  13.058  -8.436  1.00  0.00    -0.394 OA
ATOM     21  H   UNL     1      11.539  12.786  -9.386  1.00  0.00     0.210 HD
ENDBRANCH  19  20
ENDBRANCH  15  19
ENDBRANCH  12  15
ENDBRANCH  10  11
BRANCH  10  22
ATOM     22  CB  PHE A   2      15.614   9.773  -4.888  1.00  0.00     0.070 C 
BRANCH  22  23
ATOM     23  CG  PHE A   2      14.443   9.290  -4.090  1.00  0.00    -0.045 A 
ATOM     24  CD1 PHE A   2      13.903  10.047  -3.033  1.00  0.00     0.004 A 
ATOM     25  CD2 PHE A   2      13.968   7.990  -4.310  1.00  0.00     0.004 A 
ATOM     26  CE1 PHE A   2      12.869   9.536  -2.260  1.00  0.00     0.000 A 
ATOM     27  CE2 PHE A   2      12.939   7.477  -3.521  1.00  0.00     0.000 A 
ATOM     28  CZ  PHE A   2      12.386   8.253  -2.502  1.00  0.00     0.000 A 
ENDBRANCH  22  23
ENDBRANCH  10  22
ENDBRANCH   7  10
ENDBRANCH   5   6
BRANCH   5  29
ATOM     29  CB  HIS A   3      20.181  12.260  -5.204  1.00  0.00     0.093 C 
BRANCH  29  30
ATOM     30  CG  HIS A   3      20.417  11.675  -3.835  1.00  0.00     0.061 A 
ATOM     31  ND1 HIS A   3      19.569  11.820  -2.796  1.00  0.00    -0.242 NA
ATOM     32  CD2 HIS A   3      21.499  10.913  -3.454  1.00  0.00     0.107 A 
ATOM     33  CE1 HIS A   3      20.162  11.132  -1.797  1.00  0.00     0.196 A 
ATOM     34  NE2 HIS A   3      21.329  10.573  -2.168  1.00  0.00    -0.351 N 
ATOM     35  H   UNL     1      21.964   9.992  -1.579  1.00  0.00     0.167 HD
ENDBRANCH  29  30
ENDBRANCH   5  29
ENDBRANCH   1   5
BRANCH   3  36
ATOM     36  CA  ALA A   4      21.340   8.747  -8.149  1.00  0.00     0.168 C 
ATOM     37  CB  ALA A   4      20.663   8.005  -9.293  1.00  0.00     0.041 C 
BRANCH  36  38
ATOM     38  C   ALA A   4      22.708   9.199  -8.528  1.00  0.00     0.242 C 
ATOM     39  N   ARG A   5      23.816   8.706  -7.790  1.00  0.00    -0.343 N 
ATOM     40  O   ALA A   4      22.873  10.026  -9.467  1.00  0.00    -0.273 OA
ATOM     41  H   UNL     1      23.662   7.984  -7.048  1.00  0.00     0.164 HD
BRANCH  39  42
ATOM     42  CA  ARG A   5      25.180   9.117  -8.072  1.00  0.00     0.171 C 
BRANCH  42  43
ATOM     43  C   ARG A   5      25.901   7.967  -8.686  1.00  0.00     0.243 C 
ATOM     44  N   ASN A   6      25.916   7.866 -10.103  1.00  0.00    -0.341 N 
ATOM     45  O   ARG A   5      26.449   7.087  -7.970  1.00  0.00    -0.273 OA
ATOM     46  H   UNL     1      25.496   8.651 -10.651  1.00  0.00     0.164 HD
BRANCH  44  47
ATOM     47  CA  ASN A   6      26.543   6.751 -10.804  1.00  0.00     0.201 C 
BRANCH  47  48
ATOM     48  C   ASN A   6      27.994   6.642 -10.417  1.00  0.00     0.326 C 
ATOM     49  O   ASN A   6      28.795   7.579 -10.677  1.00  0.00    -0.250 OA
BRANCH  48  50
ATOM     50  OXT ASN A   6      28.453   5.497  -9.772  1.00  0.00    -0.480 OA
ATOM     51  H   UNL     1      29.426   5.407  -9.504  1.00  0.00     0.296 HD
ENDBRANCH  48  50
ENDBRANCH  47  48
BRANCH  47  52
ATOM     52  CB  ASN A   6      26.424   6.946 -12.323  1.00  0.00     0.136 C 
BRANCH  52  53
ATOM     53  CG  ASN A   6      25.009   7.181 -12.772  1.00  0.00     0.220 C 
ATOM     54  ND2 ASN A   6      24.753   8.089 -13.834  1.00  0.00    -0.370 N 
ATOM     55  OD1 ASN A   6      24.051   6.563 -12.238  1.00  0.00    -0.275 OA
ATOM     56  H   UNL     1      25.534   8.595 -14.309  1.00  0.00     0.159 HD
ATOM     57  H   UNL     1      23.775   8.258 -14.156  1.00  0.00     0.159 HD
ENDBRANCH  52  53
ENDBRANCH  47  52
ENDBRANCH  44  47
ENDBRANCH  42  43
BRANCH  42  58
ATOM     58  CB  ARG A   5      25.855   9.600  -6.794  1.00  0.00     0.037 C 
BRANCH  58  59
ATOM     59  CG  ARG A   5      25.163  10.859  -6.272  1.00  0.00     0.024 C 
BRANCH  59  60
ATOM     60  CD  ARG A   5      25.838  11.390  -5.016  1.00  0.00     0.116 C 
BRANCH  60  61
ATOM     61  NE  ARG A   5      25.378  10.684  -3.823  1.00  0.00    -0.357 N 
ATOM     62  CZ  ARG A   5      25.468  11.279  -2.528  1.00  0.00     0.185 C 
ATOM     63  NH2 ARG A   5      26.103  12.542  -2.351  1.00  0.00    -0.370 N 
ATOM     64  H   UNL     1      24.905   9.756  -3.921  1.00  0.00     0.163 HD
ATOM     65  H   UNL     1      26.081  13.008  -1.416  1.00  0.00     0.159 HD
ATOM     66  H   UNL     1      26.688  12.985  -3.092  1.00  0.00     0.159 HD
BRANCH  62  67
ATOM     67  NH1 ARG A   5      24.962  10.677  -1.499  1.00  0.00    -0.270 NA
ATOM     68  H   UNL     1      24.487   9.750  -1.582  1.00  0.00     0.191 HD
ENDBRANCH  62  67
ENDBRANCH  60  61
ENDBRANCH  59  60
ENDBRANCH  58  59
ENDBRANCH  42  58
ENDBRANCH  39  42
ENDBRANCH  36  38
ENDBRANCH   3  36
TORSDOF 26
