REMARK SMILES N=C(N)NCCC[C@H](NC(=O)[C@H](Cc1ccccc1)NC(=O)[C@H](CC(N)=O)NC(=O)[C@H](Cc1ccccc1)NC(=O)[C@@H](N)CO)C(=O)N[C@@H](CC(N)=O)C(=O)O
REMARK SMILES IDX 21 1 22 2 20 3 23 5 28 6 29 7 30 8 31 10 39 11 40 12 41 13
REMARK SMILES IDX 42 15 43 16 44 19 45 20 32 22 33 23 34 24 38 25 35 26 37 27
REMARK SMILES IDX 36 28 24 29 25 30 26 31 27 32 12 35 10 36 9 37 11 38 8 40
REMARK SMILES IDX 46 41 48 42 47 43 49 45 54 46 55 47 56 48 50 50 51 51 52 52
REMARK SMILES IDX 53 53 7 56 6 57 5 58 4 59 2 60 3 61 1 65 13 67 14 68 15 69
REMARK SMILES IDX 19 70 16 71 18 72 17 73
REMARK H PARENT 20 4 28 9 39 14 43 17 43 18 45 21 26 33 26 34 9 39 48 44 56 49
REMARK H PARENT 52 54 52 55 4 62 3 63 3 64 1 66
ROOT
ATOM      1  C   ASN A   3      20.054  10.092  -6.461  1.00  0.00     0.243 C 
ATOM      2  O   ASN A   3      20.173   9.183  -5.594  1.00  0.00    -0.273 OA
ATOM      3  N   PHE A   4      20.565   9.913  -7.774  1.00  0.00    -0.342 N 
ATOM      4  H   UNL     1      20.397  10.650  -8.497  1.00  0.00     0.164 HD
ENDROOT
BRANCH   1   5
ATOM      5  CA  ASN A   3      19.348  11.365  -6.134  1.00  0.00     0.180 C 
BRANCH   5   6
ATOM      6  N   ASN A   3      18.090  11.042  -5.511  1.00  0.00    -0.342 N 
ATOM      7  C   PHE A   2      16.888  11.749  -5.775  1.00  0.00     0.243 C 
ATOM      8  O   PHE A   2      16.904  12.794  -6.482  1.00  0.00    -0.273 OA
ATOM      9  H   UNL     1      18.165  10.480  -4.639  1.00  0.00     0.164 HD
BRANCH   7  10
ATOM     10  CA  PHE A   2      15.653  11.314  -5.059  1.00  0.00     0.175 C 
BRANCH  10  11
ATOM     11  N   PHE A   2      14.455  11.741  -5.769  1.00  0.00    -0.343 N 
ATOM     12  C   SER A   1      13.916  13.051  -5.637  1.00  0.00     0.239 C 
ATOM     13  O   SER A   1      14.444  13.870  -4.836  1.00  0.00    -0.273 OA
ATOM     14  H   UNL     1      13.867  11.001  -6.211  1.00  0.00     0.164 HD
BRANCH  12  15
ATOM     15  CA  SER A   1      12.662  13.410  -6.389  1.00  0.00     0.167 C 
BRANCH  15  16
ATOM     16  N   SER A   1      12.471  14.862  -6.376  1.00  0.00    -0.318 NA
ATOM     17  H   UNL     1      13.202  15.317  -6.972  1.00  0.00     0.119 HD
ATOM     18  H   UNL     1      11.539  15.087  -6.793  1.00  0.00     0.119 HD
ENDBRANCH  15  16
BRANCH  15  19
ATOM     19  CB  SER A   1      12.687  12.879  -7.844  1.00  0.00     0.184 C 
BRANCH  19  20
ATOM     20  OG  SER A   1      11.437  13.048  -8.451  1.00  0.00    -0.394 OA
ATOM     21  H   UNL     1      10.831  12.368  -8.054  1.00  0.00     0.210 HD
ENDBRANCH  19  20
ENDBRANCH  15  19
ENDBRANCH  12  15
ENDBRANCH  10  11
BRANCH  10  22
ATOM     22  CB  PHE A   2      15.613   9.774  -4.889  1.00  0.00     0.070 C 
BRANCH  22  23
ATOM     23  CG  PHE A   2      14.442   9.290  -4.091  1.00  0.00    -0.045 A 
ATOM     24  CD1 PHE A   2      13.902  10.047  -3.033  1.00  0.00     0.004 A 
ATOM     25  CD2 PHE A   2      13.968   7.990  -4.310  1.00  0.00     0.004 A 
ATOM     26  CE1 PHE A   2      12.868   9.536  -2.260  1.00  0.00     0.000 A 
ATOM     27  CE2 PHE A   2      12.939   7.477  -3.521  1.00  0.00     0.000 A 
ATOM     28  CZ  PHE A   2      12.386   8.253  -2.502  1.00  0.00     0.000 A 
ENDBRANCH  22  23
ENDBRANCH  10  22
ENDBRANCH   7  10
ENDBRANCH   5   6
BRANCH   5  29
ATOM     29  CB  ASN A   3      20.178  12.262  -5.204  1.00  0.00     0.134 C 
BRANCH  29  30
ATOM     30  CG  ASN A   3      20.418  11.673  -3.836  1.00  0.00     0.220 C 
ATOM     31  ND2 ASN A   3      19.494  11.906  -2.773  1.00  0.00    -0.370 N 
ATOM     32  OD1 ASN A   3      21.441  10.966  -3.629  1.00  0.00    -0.275 OA
ATOM     33  H   UNL     1      19.661  11.492  -1.829  1.00  0.00     0.159 HD
ATOM     34  H   UNL     1      18.640  12.487  -2.927  1.00  0.00     0.159 HD
ENDBRANCH  29  30
ENDBRANCH   5  29
ENDBRANCH   1   5
BRANCH   3  35
ATOM     35  CA  PHE A   4      21.349   8.749  -8.141  1.00  0.00     0.175 C 
BRANCH  35  36
ATOM     36  C   PHE A   4      22.713   9.205  -8.524  1.00  0.00     0.243 C 
ATOM     37  N   ARG A   5      23.823   8.714  -7.786  1.00  0.00    -0.343 N 
ATOM     38  O   PHE A   4      22.876  10.026  -9.468  1.00  0.00    -0.273 OA
ATOM     39  H   UNL     1      23.669   8.013  -7.026  1.00  0.00     0.164 HD
BRANCH  37  40
ATOM     40  CA  ARG A   5      25.185   9.120  -8.073  1.00  0.00     0.171 C 
BRANCH  40  41
ATOM     41  C   ARG A   5      25.901   7.967  -8.686  1.00  0.00     0.243 C 
ATOM     42  N   ASN A   6      25.914   7.864 -10.103  1.00  0.00    -0.341 N 
ATOM     43  O   ARG A   5      26.448   7.086  -7.970  1.00  0.00    -0.273 OA
ATOM     44  H   UNL     1      25.490   8.647 -10.651  1.00  0.00     0.164 HD
BRANCH  42  45
ATOM     45  CA  ASN A   6      26.543   6.751 -10.805  1.00  0.00     0.201 C 
BRANCH  45  46
ATOM     46  C   ASN A   6      27.993   6.642 -10.415  1.00  0.00     0.326 C 
ATOM     47  O   ASN A   6      28.795   7.578 -10.676  1.00  0.00    -0.250 OA
BRANCH  46  48
ATOM     48  OXT ASN A   6      28.450   5.499  -9.766  1.00  0.00    -0.480 OA
ATOM     49  H   UNL     1      29.422   5.409  -9.496  1.00  0.00     0.296 HD
ENDBRANCH  46  48
ENDBRANCH  45  46
BRANCH  45  50
ATOM     50  CB  ASN A   6      26.429   6.950 -12.324  1.00  0.00     0.136 C 
BRANCH  50  51
ATOM     51  CG  ASN A   6      25.017   7.186 -12.776  1.00  0.00     0.220 C 
ATOM     52  ND2 ASN A   6      24.759   8.093 -13.838  1.00  0.00    -0.370 N 
ATOM     53  OD1 ASN A   6      24.061   6.570 -12.241  1.00  0.00    -0.275 OA
ATOM     54  H   UNL     1      25.539   8.599 -14.313  1.00  0.00     0.159 HD
ATOM     55  H   UNL     1      23.780   8.261 -14.159  1.00  0.00     0.159 HD
ENDBRANCH  50  51
ENDBRANCH  45  50
ENDBRANCH  42  45
ENDBRANCH  40  41
BRANCH  40  56
ATOM     56  CB  ARG A   5      25.861   9.603  -6.795  1.00  0.00     0.037 C 
BRANCH  56  57
ATOM     57  CG  ARG A   5      25.165  10.858  -6.270  1.00  0.00     0.024 C 
BRANCH  57  58
ATOM     58  CD  ARG A   5      25.840  11.390  -5.014  1.00  0.00     0.116 C 
BRANCH  58  59
ATOM     59  NE  ARG A   5      25.376  10.687  -3.820  1.00  0.00    -0.357 N 
ATOM     60  CZ  ARG A   5      25.469  11.282  -2.526  1.00  0.00     0.185 C 
ATOM     61  NH2 ARG A   5      26.109  12.546  -2.351  1.00  0.00    -0.370 N 
ATOM     62  H   UNL     1      24.895   9.763  -3.912  1.00  0.00     0.163 HD
ATOM     63  H   UNL     1      26.084  13.022  -1.423  1.00  0.00     0.159 HD
ATOM     64  H   UNL     1      26.698  12.981  -3.093  1.00  0.00     0.159 HD
BRANCH  60  65
ATOM     65  NH1 ARG A   5      24.955  10.671  -1.507  1.00  0.00    -0.270 NA
ATOM     66  H   UNL     1      24.998  11.075  -0.544  1.00  0.00     0.191 HD
ENDBRANCH  60  65
ENDBRANCH  58  59
ENDBRANCH  57  58
ENDBRANCH  56  57
ENDBRANCH  40  56
ENDBRANCH  37  40
ENDBRANCH  35  36
BRANCH  35  67
ATOM     67  CB  PHE A   4      20.659   7.990  -9.277  1.00  0.00     0.070 C 
BRANCH  67  68
ATOM     68  CG  PHE A   4      21.386   6.752  -9.775  1.00  0.00    -0.045 A 
ATOM     69  CD1 PHE A   4      21.112   6.307 -11.081  1.00  0.00     0.004 A 
ATOM     70  CD2 PHE A   4      22.156   5.924  -8.930  1.00  0.00     0.004 A 
ATOM     71  CE1 PHE A   4      21.617   5.088 -11.542  1.00  0.00     0.000 A 
ATOM     72  CE2 PHE A   4      22.686   4.721  -9.407  1.00  0.00     0.000 A 
ATOM     73  CZ  PHE A   4      22.415   4.302 -10.710  1.00  0.00     0.000 A 
ENDBRANCH  67  68
ENDBRANCH  35  67
ENDBRANCH   3  35
TORSDOF 28
