REMARK SMILES CC(C)C[C@H](NC(=O)[C@H](C)NC(=O)[C@@H](N)CO)C(=O)N[C@@H](Cc1c[nH]cn1)C(=O)N[C@@H](CCCNC(=N)N)C(=O)N[C@@H](CC(N)=O)C(=O)O
REMARK SMILES IDX 18 1 19 2 20 3 5 5 6 6 7 7 8 8 9 10 10 11 11 12 12 13 13 14
REMARK SMILES IDX 14 16 15 17 16 20 17 21 4 23 2 24 1 25 3 26 21 27 28 28
REMARK SMILES IDX 30 29 29 30 31 32 39 33 41 34 40 35 42 37 47 38 48 39 49 40
REMARK SMILES IDX 43 42 44 43 45 44 46 45 32 48 33 49 34 50 35 51 36 52 38 53
REMARK SMILES IDX 37 57 22 59 23 60 27 61 24 62 26 63 25 64
REMARK H PARENT 20 4 6 9 11 15 15 18 15 19 17 22 30 31 41 36 49 41 45 46 45 47
REMARK H PARENT 35 54 38 55 38 56 37 58 25 65
ROOT
ATOM      1  C   LEU A   3      20.062  10.076  -6.439  1.00  0.00     0.243 C 
ATOM      2  O   LEU A   3      20.206   9.177  -5.567  1.00  0.00    -0.273 OA
ATOM      3  N   HIS A   4      20.566   9.902  -7.758  1.00  0.00    -0.342 N 
ATOM      4  H   UNL     1      20.396  10.641  -8.478  1.00  0.00     0.164 HD
ENDROOT
BRANCH   1   5
ATOM      5  CA  LEU A   3      19.319  11.324  -6.123  1.00  0.00     0.171 C 
BRANCH   5   6
ATOM      6  N   LEU A   3      18.066  11.001  -5.489  1.00  0.00    -0.343 N 
ATOM      7  C   ALA A   2      16.874  11.739  -5.725  1.00  0.00     0.242 C 
ATOM      8  O   ALA A   2      16.900  12.784  -6.436  1.00  0.00    -0.273 OA
ATOM      9  H   UNL     1      18.082  10.267  -4.750  1.00  0.00     0.164 HD
BRANCH   7  10
ATOM     10  CA  ALA A   2      15.615  11.292  -5.035  1.00  0.00     0.168 C 
ATOM     11  CB  ALA A   2      15.559   9.761  -4.897  1.00  0.00     0.041 C 
BRANCH  10  12
ATOM     12  N   ALA A   2      14.441  11.732  -5.769  1.00  0.00    -0.343 N 
ATOM     13  C   SER A   1      13.912  13.046  -5.637  1.00  0.00     0.239 C 
ATOM     14  O   SER A   1      14.447  13.862  -4.836  1.00  0.00    -0.273 OA
ATOM     15  H   UNL     1      13.858  11.000  -6.231  1.00  0.00     0.164 HD
BRANCH  13  16
ATOM     16  CA  SER A   1      12.659  13.412  -6.393  1.00  0.00     0.167 C 
BRANCH  16  17
ATOM     17  N   SER A   1      12.454  14.862  -6.401  1.00  0.00    -0.318 NA
ATOM     18  H   UNL     1      13.317  15.338  -6.754  1.00  0.00     0.119 HD
ATOM     19  H   UNL     1      12.284  15.188  -5.421  1.00  0.00     0.119 HD
ENDBRANCH  16  17
BRANCH  16  20
ATOM     20  CB  SER A   1      12.692  12.893  -7.847  1.00  0.00     0.184 C 
BRANCH  20  21
ATOM     21  OG  SER A   1      11.435  13.060  -8.438  1.00  0.00    -0.394 OA
ATOM     22  H   UNL     1      11.536  12.795  -9.390  1.00  0.00     0.210 HD
ENDBRANCH  20  21
ENDBRANCH  16  20
ENDBRANCH  13  16
ENDBRANCH  10  12
ENDBRANCH   7  10
ENDBRANCH   5   6
BRANCH   5  23
ATOM     23  CB  LEU A   3      20.142  12.335  -5.312  1.00  0.00     0.038 C 
BRANCH  23  24
ATOM     24  CG  LEU A   3      20.425  12.202  -3.790  1.00  0.00    -0.015 C 
ATOM     25  CD1 LEU A   3      21.817  11.748  -3.391  1.00  0.00     0.007 C 
ATOM     26  CD2 LEU A   3      19.293  11.876  -2.831  1.00  0.00     0.007 C 
ENDBRANCH  23  24
ENDBRANCH   5  23
ENDBRANCH   1   5
BRANCH   3  27
ATOM     27  CA  HIS A   4      21.349   8.742  -8.141  1.00  0.00     0.177 C 
BRANCH  27  28
ATOM     28  C   HIS A   4      22.712   9.204  -8.522  1.00  0.00     0.243 C 
ATOM     29  N   ARG A   5      23.822   8.709  -7.788  1.00  0.00    -0.343 N 
ATOM     30  O   HIS A   4      22.874  10.028  -9.463  1.00  0.00    -0.273 OA
ATOM     31  H   UNL     1      23.669   7.994  -7.040  1.00  0.00     0.164 HD
BRANCH  29  32
ATOM     32  CA  ARG A   5      25.184   9.118  -8.073  1.00  0.00     0.171 C 
BRANCH  32  33
ATOM     33  C   ARG A   5      25.902   7.967  -8.686  1.00  0.00     0.243 C 
ATOM     34  N   ASN A   6      25.915   7.864 -10.103  1.00  0.00    -0.341 N 
ATOM     35  O   ARG A   5      26.449   7.086  -7.970  1.00  0.00    -0.273 OA
ATOM     36  H   UNL     1      25.492   8.649 -10.651  1.00  0.00     0.164 HD
BRANCH  34  37
ATOM     37  CA  ASN A   6      26.542   6.750 -10.805  1.00  0.00     0.201 C 
BRANCH  37  38
ATOM     38  C   ASN A   6      27.996   6.640 -10.414  1.00  0.00     0.326 C 
ATOM     39  O   ASN A   6      28.793   7.579 -10.678  1.00  0.00    -0.250 OA
BRANCH  38  40
ATOM     40  OXT ASN A   6      28.473   5.506  -9.764  1.00  0.00    -0.480 OA
ATOM     41  H   UNL     1      27.861   4.732  -9.534  1.00  0.00     0.296 HD
ENDBRANCH  38  40
ENDBRANCH  37  38
BRANCH  37  42
ATOM     42  CB  ASN A   6      26.428   6.949 -12.324  1.00  0.00     0.136 C 
BRANCH  42  43
ATOM     43  CG  ASN A   6      25.015   7.185 -12.776  1.00  0.00     0.220 C 
ATOM     44  ND2 ASN A   6      24.759   8.093 -13.837  1.00  0.00    -0.370 N 
ATOM     45  OD1 ASN A   6      24.058   6.567 -12.244  1.00  0.00    -0.275 OA
ATOM     46  H   UNL     1      25.539   8.601 -14.311  1.00  0.00     0.159 HD
ATOM     47  H   UNL     1      23.780   8.261 -14.160  1.00  0.00     0.159 HD
ENDBRANCH  42  43
ENDBRANCH  37  42
ENDBRANCH  34  37
ENDBRANCH  32  33
BRANCH  32  48
ATOM     48  CB  ARG A   5      25.859   9.602  -6.795  1.00  0.00     0.037 C 
BRANCH  48  49
ATOM     49  CG  ARG A   5      25.158  10.854  -6.272  1.00  0.00     0.024 C 
BRANCH  49  50
ATOM     50  CD  ARG A   5      25.833  11.394  -5.020  1.00  0.00     0.116 C 
BRANCH  50  51
ATOM     51  NE  ARG A   5      25.381  10.689  -3.822  1.00  0.00    -0.357 N 
ATOM     52  CZ  ARG A   5      25.471  11.283  -2.527  1.00  0.00     0.185 C 
ATOM     53  NH2 ARG A   5      26.111  12.544  -2.332  1.00  0.00    -0.370 N 
ATOM     54  H   UNL     1      24.900   9.765  -3.912  1.00  0.00     0.163 HD
ATOM     55  H   UNL     1      26.703  13.002  -3.058  1.00  0.00     0.159 HD
ATOM     56  H   UNL     1      26.703  13.002  -3.058  1.00  0.00     0.159 HD
BRANCH  52  57
ATOM     57  NH1 ARG A   5      24.951  10.675  -1.510  1.00  0.00    -0.270 NA
ATOM     58  H   UNL     1      24.994  11.086  -0.551  1.00  0.00     0.191 HD
ENDBRANCH  52  57
ENDBRANCH  50  51
ENDBRANCH  49  50
ENDBRANCH  48  49
ENDBRANCH  32  48
ENDBRANCH  29  32
ENDBRANCH  27  28
BRANCH  27  59
ATOM     59  CB  HIS A   4      20.660   7.999  -9.290  1.00  0.00     0.093 C 
BRANCH  59  60
ATOM     60  CG  HIS A   4      21.397   6.766  -9.746  1.00  0.00     0.061 A 
ATOM     61  ND1 HIS A   4      21.236   6.234 -10.975  1.00  0.00    -0.242 NA
ATOM     62  CD2 HIS A   4      22.114   5.884  -8.958  1.00  0.00     0.107 A 
ATOM     63  CE1 HIS A   4      21.890   5.055 -10.916  1.00  0.00     0.196 A 
ATOM     64  NE2 HIS A   4      22.435   4.821  -9.709  1.00  0.00    -0.351 N 
ATOM     65  H   UNL     1      22.969   3.975  -9.410  1.00  0.00     0.167 HD
ENDBRANCH  59  60
ENDBRANCH  27  59
ENDBRANCH   3  27
TORSDOF 26
