REMARK SMILES N=C(N)NCCC[C@H](NC(=O)CNC(=O)CNC(=O)[C@H](Cc1ccccc1)NC(=O)[C@@H](N)CO)C(=O)N[C@@H](CC(N)=O)C(=O)O
REMARK SMILES IDX 14 1 15 2 13 3 16 5 17 6 18 7 19 8 20 10 28 11 29 12 30 13
REMARK SMILES IDX 31 15 32 16 33 19 34 20 21 22 22 23 23 24 27 25 24 26 26 27
REMARK SMILES IDX 25 28 12 29 10 30 9 31 11 32 8 34 35 35 37 36 36 37 38 39
REMARK SMILES IDX 43 40 44 41 45 42 39 44 40 45 41 46 42 47 7 50 6 51 5 52
REMARK SMILES IDX 4 53 2 54 3 55 1 59
REMARK H PARENT 13 4 17 9 28 14 32 17 32 18 34 21 9 33 37 38 45 43 41 48 41 49
REMARK H PARENT 4 56 3 57 3 58 1 60
ROOT
ATOM      1  C   GLY A   3       1.171   0.335   0.208  1.00  0.00     0.239 C 
ATOM      2  O   GLY A   3       0.730   1.341  -0.412  1.00  0.00    -0.273 OA
ATOM      3  N   GLY A   4       0.594  -0.961  -0.010  1.00  0.00    -0.346 N 
ATOM      4  H   UNL     1       0.953  -1.778   0.533  1.00  0.00     0.164 HD
ENDROOT
BRANCH   1   5
ATOM      5  CA  GLY A   3       2.279   0.512   1.205  1.00  0.00     0.216 C 
BRANCH   5   6
ATOM      6  N   GLY A   3       3.284  -0.537   1.050  1.00  0.00    -0.345 N 
ATOM      7  C   PHE A   2       4.165  -0.603  -0.082  1.00  0.00     0.243 C 
ATOM      8  O   PHE A   2       4.100   0.287  -0.974  1.00  0.00    -0.273 OA
ATOM      9  H   UNL     1       3.320  -1.290   1.772  1.00  0.00     0.164 HD
BRANCH   7  10
ATOM     10  CA  PHE A   2       5.100  -1.784  -0.239  1.00  0.00     0.175 C 
BRANCH  10  11
ATOM     11  N   PHE A   2       5.802  -1.806  -1.534  1.00  0.00    -0.343 N 
ATOM     12  C   SER A   1       6.641  -0.763  -2.067  1.00  0.00     0.239 C 
ATOM     13  O   SER A   1       6.780   0.329  -1.453  1.00  0.00    -0.273 OA
ATOM     14  H   UNL     1       5.687  -2.671  -2.111  1.00  0.00     0.164 HD
BRANCH  12  15
ATOM     15  CA  SER A   1       7.396  -0.997  -3.351  1.00  0.00     0.167 C 
BRANCH  15  16
ATOM     16  N   SER A   1       7.565   0.259  -4.090  1.00  0.00    -0.318 NA
ATOM     17  H   UNL     1       8.240   0.881  -3.587  1.00  0.00     0.119 HD
ATOM     18  H   UNL     1       7.985   0.042  -5.023  1.00  0.00     0.119 HD
ENDBRANCH  15  16
BRANCH  15  19
ATOM     19  CB  SER A   1       8.746  -1.682  -3.073  1.00  0.00     0.184 C 
BRANCH  19  20
ATOM     20  OG  SER A   1       9.569  -0.860  -2.292  1.00  0.00    -0.394 OA
ATOM     21  H   UNL     1      10.373  -1.399  -2.075  1.00  0.00     0.210 HD
ENDBRANCH  19  20
ENDBRANCH  15  19
ENDBRANCH  12  15
ENDBRANCH  10  11
BRANCH  10  22
ATOM     22  CB  PHE A   2       6.071  -1.992   0.949  1.00  0.00     0.070 C 
BRANCH  22  23
ATOM     23  CG  PHE A   2       7.056  -0.873   1.173  1.00  0.00    -0.045 A 
ATOM     24  CD1 PHE A   2       6.658   0.310   1.820  1.00  0.00     0.004 A 
ATOM     25  CD2 PHE A   2       8.392  -1.012   0.759  1.00  0.00     0.004 A 
ATOM     26  CE1 PHE A   2       7.577   1.344   2.027  1.00  0.00     0.000 A 
ATOM     27  CE2 PHE A   2       9.307   0.025   0.965  1.00  0.00     0.000 A 
ATOM     28  CZ  PHE A   2       8.899   1.203   1.596  1.00  0.00     0.000 A 
ENDBRANCH  22  23
ENDBRANCH  10  22
ENDBRANCH   7  10
ENDBRANCH   5   6
ENDBRANCH   1   5
BRANCH   3  29
ATOM     29  CA  GLY A   4      -0.486  -1.189  -0.966  1.00  0.00     0.216 C 
BRANCH  29  30
ATOM     30  C   GLY A   4      -1.792  -0.741  -0.385  1.00  0.00     0.240 C 
ATOM     31  N   ARG A   5      -2.440   0.442  -0.878  1.00  0.00    -0.343 N 
ATOM     32  O   GLY A   4      -2.307  -1.404   0.557  1.00  0.00    -0.273 OA
ATOM     33  H   UNL     1      -2.001   0.957  -1.675  1.00  0.00     0.164 HD
BRANCH  31  34
ATOM     34  CA  ARG A   5      -3.761   0.863  -0.401  1.00  0.00     0.171 C 
BRANCH  34  35
ATOM     35  C   ARG A   5      -4.818   0.047  -1.099  1.00  0.00     0.243 C 
ATOM     36  N   ASN A   6      -5.712  -0.784  -0.341  1.00  0.00    -0.341 N 
ATOM     37  O   ARG A   5      -4.921   0.106  -2.355  1.00  0.00    -0.273 OA
ATOM     38  H   UNL     1      -5.530  -0.896   0.681  1.00  0.00     0.164 HD
BRANCH  36  39
ATOM     39  CA  ASN A   6      -6.785  -1.556  -0.981  1.00  0.00     0.201 C 
BRANCH  39  40
ATOM     40  C   ASN A   6      -7.801  -0.641  -1.612  1.00  0.00     0.326 C 
ATOM     41  O   ASN A   6      -8.153   0.423  -1.034  1.00  0.00    -0.250 OA
BRANCH  40  42
ATOM     42  OXT ASN A   6      -8.362  -0.980  -2.838  1.00  0.00    -0.480 OA
ATOM     43  H   UNL     1      -9.044  -0.378  -3.283  1.00  0.00     0.296 HD
ENDBRANCH  40  42
ENDBRANCH  39  40
BRANCH  39  44
ATOM     44  CB  ASN A   6      -7.447  -2.542   0.006  1.00  0.00     0.136 C 
BRANCH  44  45
ATOM     45  CG  ASN A   6      -8.117  -1.867   1.172  1.00  0.00     0.220 C 
ATOM     46  ND2 ASN A   6      -7.454  -1.764   2.432  1.00  0.00    -0.370 N 
ATOM     47  OD1 ASN A   6      -9.272  -1.380   1.037  1.00  0.00    -0.275 OA
ATOM     48  H   UNL     1      -6.505  -2.175   2.576  1.00  0.00     0.159 HD
ATOM     49  H   UNL     1      -7.920  -1.282   3.233  1.00  0.00     0.159 HD
ENDBRANCH  44  45
ENDBRANCH  39  44
ENDBRANCH  36  39
ENDBRANCH  34  35
BRANCH  34  50
ATOM     50  CB  ARG A   5      -3.960   2.373  -0.658  1.00  0.00     0.037 C 
BRANCH  50  51
ATOM     51  CG  ARG A   5      -5.275   2.931  -0.080  1.00  0.00     0.024 C 
BRANCH  51  52
ATOM     52  CD  ARG A   5      -5.210   3.144   1.439  1.00  0.00     0.116 C 
BRANCH  52  53
ATOM     53  NE  ARG A   5      -6.488   3.654   1.937  1.00  0.00    -0.357 N 
ATOM     54  CZ  ARG A   5      -7.686   2.867   2.076  1.00  0.00     0.185 C 
ATOM     55  NH2 ARG A   5      -8.909   3.511   2.431  1.00  0.00    -0.370 N 
ATOM     56  H   UNL     1      -6.530   4.660   2.218  1.00  0.00     0.163 HD
ATOM     57  H   UNL     1      -9.785   2.954   2.547  1.00  0.00     0.159 HD
ATOM     58  H   UNL     1      -8.949   4.544   2.565  1.00  0.00     0.159 HD
BRANCH  54  59
ATOM     59  NH1 ARG A   5      -7.682   1.583   1.902  1.00  0.00    -0.270 NA
ATOM     60  H   UNL     1      -6.831   1.035   1.653  1.00  0.00     0.191 HD
ENDBRANCH  54  59
ENDBRANCH  52  53
ENDBRANCH  51  52
ENDBRANCH  50  51
ENDBRANCH  34  50
ENDBRANCH  31  34
ENDBRANCH  29  30
ENDBRANCH   3  29
TORSDOF 24
