REMARK SMILES CC(C)C[C@H](NC(=O)[C@@H](NC(=O)[C@H](Cc1c[nH]cn1)NC(=O)[C@@H](N)CO)C(C)C)C(=O)N[C@@H](CCCNC(=N)N)C(=O)N[C@@H](CC(N)=O)C(=O)O
REMARK SMILES IDX 7 1 8 2 6 3 9 5 10 6 11 7 12 8 13 10 20 11 21 12 22 13 23 15
REMARK SMILES IDX 24 16 25 19 26 20 14 22 15 23 19 24 16 25 18 26 17 27 27 29
REMARK SMILES IDX 28 30 29 31 5 32 30 33 32 34 31 35 33 37 41 38 43 39 42 40
REMARK SMILES IDX 44 42 49 43 50 44 51 45 45 47 46 48 47 49 48 50 34 53 35 54
REMARK SMILES IDX 36 55 37 56 38 57 40 58 39 62 4 64 2 65 1 66 3 67
REMARK H PARENT 6 4 10 9 20 14 24 17 24 18 26 21 17 28 32 36 43 41 51 46 47 51
REMARK H PARENT 47 52 37 59 40 60 40 61 39 63
ROOT
ATOM      1  C   VAL A   3      20.038  10.090  -6.461  1.00  0.00     0.243 C 
ATOM      2  O   VAL A   3      20.155   9.172  -5.603  1.00  0.00    -0.273 OA
ATOM      3  N   LEU A   4      20.562   9.925  -7.770  1.00  0.00    -0.343 N 
ATOM      4  H   UNL     1      20.400  10.666  -8.490  1.00  0.00     0.164 HD
ENDROOT
BRANCH   1   5
ATOM      5  CA  VAL A   3      19.334  11.364  -6.124  1.00  0.00     0.174 C 
BRANCH   5   6
ATOM      6  N   VAL A   3      18.079  11.038  -5.488  1.00  0.00    -0.342 N 
ATOM      7  C   HIS A   2      16.871  11.739  -5.744  1.00  0.00     0.243 C 
ATOM      8  O   HIS A   2      16.880  12.776  -6.465  1.00  0.00    -0.273 OA
ATOM      9  H   UNL     1      18.149  10.450  -4.631  1.00  0.00     0.164 HD
BRANCH   7  10
ATOM     10  CA  HIS A   2      15.623  11.281  -5.040  1.00  0.00     0.177 C 
BRANCH  10  11
ATOM     11  N   HIS A   2      14.440  11.728  -5.760  1.00  0.00    -0.342 N 
ATOM     12  C   SER A   1      13.916  13.044  -5.632  1.00  0.00     0.239 C 
ATOM     13  O   SER A   1      14.453  13.860  -4.833  1.00  0.00    -0.273 OA
ATOM     14  H   UNL     1      13.854  11.002  -6.225  1.00  0.00     0.164 HD
BRANCH  12  15
ATOM     15  CA  SER A   1      12.662  13.412  -6.387  1.00  0.00     0.167 C 
BRANCH  15  16
ATOM     16  N   SER A   1      12.457  14.861  -6.396  1.00  0.00    -0.318 NA
ATOM     17  H   UNL     1      12.288  15.189  -5.417  1.00  0.00     0.119 HD
ATOM     18  H   UNL     1      13.320  15.337  -6.750  1.00  0.00     0.119 HD
ENDBRANCH  15  16
BRANCH  15  19
ATOM     19  CB  SER A   1      12.690  12.891  -7.842  1.00  0.00     0.184 C 
BRANCH  19  20
ATOM     20  OG  SER A   1      11.437  13.054  -8.445  1.00  0.00    -0.394 OA
ATOM     21  H   UNL     1      10.842  12.357  -8.063  1.00  0.00     0.210 HD
ENDBRANCH  19  20
ENDBRANCH  15  19
ENDBRANCH  12  15
ENDBRANCH  10  11
BRANCH  10  22
ATOM     22  CB  HIS A   2      15.580   9.737  -4.915  1.00  0.00     0.093 C 
BRANCH  22  23
ATOM     23  CG  HIS A   2      14.415   9.287  -4.096  1.00  0.00     0.061 A 
ATOM     24  ND1 HIS A   2      14.324   9.449  -2.761  1.00  0.00    -0.242 NA
ATOM     25  CD2 HIS A   2      13.265   8.699  -4.576  1.00  0.00     0.107 A 
ATOM     26  CE1 HIS A   2      13.111   8.942  -2.455  1.00  0.00     0.196 A 
ATOM     27  NE2 HIS A   2      12.449   8.482  -3.534  1.00  0.00    -0.351 N 
ATOM     28  H   UNL     1      11.498   8.053  -3.555  1.00  0.00     0.167 HD
ENDBRANCH  22  23
ENDBRANCH  10  22
ENDBRANCH   7  10
ENDBRANCH   5   6
BRANCH   5  29
ATOM     29  CB  VAL A   3      20.197  12.264  -5.208  1.00  0.00     0.015 C 
ATOM     30  CG1 VAL A   3      20.427  11.689  -3.797  1.00  0.00     0.010 C 
ATOM     31  CG2 VAL A   3      19.617  13.681  -5.103  1.00  0.00     0.010 C 
ENDBRANCH   5  29
ENDBRANCH   1   5
BRANCH   3  32
ATOM     32  CA  LEU A   4      21.347   8.762  -8.138  1.00  0.00     0.171 C 
BRANCH  32  33
ATOM     33  C   LEU A   4      22.712   9.217  -8.520  1.00  0.00     0.243 C 
ATOM     34  N   ARG A   5      23.822   8.720  -7.785  1.00  0.00    -0.343 N 
ATOM     35  O   LEU A   4      22.876  10.033  -9.468  1.00  0.00    -0.273 OA
ATOM     36  H   UNL     1      23.666   8.030  -7.015  1.00  0.00     0.164 HD
BRANCH  34  37
ATOM     37  CA  ARG A   5      25.185   9.122  -8.073  1.00  0.00     0.171 C 
BRANCH  37  38
ATOM     38  C   ARG A   5      25.899   7.968  -8.685  1.00  0.00     0.243 C 
ATOM     39  N   ASN A   6      25.913   7.864 -10.102  1.00  0.00    -0.341 N 
ATOM     40  O   ARG A   5      26.447   7.087  -7.969  1.00  0.00    -0.273 OA
ATOM     41  H   UNL     1      25.489   8.647 -10.651  1.00  0.00     0.164 HD
BRANCH  39  42
ATOM     42  CA  ASN A   6      26.542   6.751 -10.804  1.00  0.00     0.201 C 
BRANCH  42  43
ATOM     43  C   ASN A   6      27.993   6.642 -10.416  1.00  0.00     0.326 C 
ATOM     44  O   ASN A   6      28.794   7.579 -10.677  1.00  0.00    -0.250 OA
BRANCH  43  45
ATOM     45  OXT ASN A   6      28.451   5.499  -9.768  1.00  0.00    -0.480 OA
ATOM     46  H   UNL     1      29.424   5.409  -9.499  1.00  0.00     0.296 HD
ENDBRANCH  43  45
ENDBRANCH  42  43
BRANCH  42  47
ATOM     47  CB  ASN A   6      26.424   6.947 -12.323  1.00  0.00     0.136 C 
BRANCH  47  48
ATOM     48  CG  ASN A   6      25.010   7.180 -12.773  1.00  0.00     0.220 C 
ATOM     49  ND2 ASN A   6      24.753   8.090 -13.833  1.00  0.00    -0.370 N 
ATOM     50  OD1 ASN A   6      24.053   6.558 -12.243  1.00  0.00    -0.275 OA
ATOM     51  H   UNL     1      25.533   8.600 -14.306  1.00  0.00     0.159 HD
ATOM     52  H   UNL     1      23.775   8.258 -14.156  1.00  0.00     0.159 HD
ENDBRANCH  47  48
ENDBRANCH  42  47
ENDBRANCH  39  42
ENDBRANCH  37  38
BRANCH  37  53
ATOM     53  CB  ARG A   5      25.862   9.605  -6.795  1.00  0.00     0.037 C 
BRANCH  53  54
ATOM     54  CG  ARG A   5      25.166  10.860  -6.270  1.00  0.00     0.024 C 
BRANCH  54  55
ATOM     55  CD  ARG A   5      25.841  11.391  -5.013  1.00  0.00     0.116 C 
BRANCH  55  56
ATOM     56  NE  ARG A   5      25.377  10.687  -3.820  1.00  0.00    -0.357 N 
ATOM     57  CZ  ARG A   5      25.469  11.282  -2.526  1.00  0.00     0.185 C 
ATOM     58  NH2 ARG A   5      26.109  12.546  -2.351  1.00  0.00    -0.370 N 
ATOM     59  H   UNL     1      24.896   9.762  -3.912  1.00  0.00     0.163 HD
ATOM     60  H   UNL     1      26.699  12.981  -3.092  1.00  0.00     0.159 HD
ATOM     61  H   UNL     1      26.083  13.022  -1.422  1.00  0.00     0.159 HD
BRANCH  57  62
ATOM     62  NH1 ARG A   5      24.956  10.671  -1.506  1.00  0.00    -0.270 NA
ATOM     63  H   UNL     1      24.998  11.075  -0.544  1.00  0.00     0.191 HD
ENDBRANCH  57  62
ENDBRANCH  55  56
ENDBRANCH  54  55
ENDBRANCH  53  54
ENDBRANCH  37  53
ENDBRANCH  34  37
ENDBRANCH  32  33
BRANCH  32  64
ATOM     64  CB  LEU A   4      20.654   8.000  -9.270  1.00  0.00     0.038 C 
BRANCH  64  65
ATOM     65  CG  LEU A   4      21.448   6.772  -9.768  1.00  0.00    -0.015 C 
ATOM     66  CD1 LEU A   4      21.762   5.779  -8.639  1.00  0.00     0.007 C 
ATOM     67  CD2 LEU A   4      20.661   6.068 -10.877  1.00  0.00     0.007 C 
ENDBRANCH  64  65
ENDBRANCH  32  64
ENDBRANCH   3  32
TORSDOF 27
