REMARK SMILES CC[C@H](C)[C@H](NC(=O)[C@@H](N)CO)C(=O)N[C@@H](CCCCN)C(=O)N[C@@H](CC(C)C)C(=O)N[C@@H](CCCNC(=N)N)C(=O)N[C@@H](CC(N)=O)C(=O)O
REMARK SMILES IDX 22 1 23 2 24 3 16 5 15 6 13 7 14 8 5 10 6 11 7 12 8 13 9 15
REMARK SMILES IDX 10 16 11 19 12 20 3 22 4 23 2 24 1 25 17 26 18 27 19 28
REMARK SMILES IDX 20 29 21 30 25 33 30 34 32 35 31 36 33 38 41 39 43 40 42 41
REMARK SMILES IDX 44 43 49 44 50 45 51 46 45 48 46 49 47 50 48 51 34 54 35 55
REMARK SMILES IDX 36 56 37 57 38 58 40 59 39 63 26 65 27 66 28 67 29 68
REMARK H PARENT 24 4 15 9 6 14 10 17 10 18 12 21 21 31 21 32 32 37 43 42 51 47
REMARK H PARENT 47 52 47 53 37 60 40 61 40 62 39 64
ROOT
ATOM      1  C   LYS A   3      20.026  10.077  -6.473  1.00  0.00     0.243 C 
ATOM      2  O   LYS A   3      20.142   9.156  -5.618  1.00  0.00    -0.273 OA
ATOM      3  N   LEU A   4      20.562   9.921  -7.776  1.00  0.00    -0.343 N 
ATOM      4  H   UNL     1      20.404  10.666  -8.493  1.00  0.00     0.164 HD
ENDROOT
BRANCH   1   5
ATOM      5  CA  LYS A   3      19.328  11.352  -6.136  1.00  0.00     0.171 C 
BRANCH   5   6
ATOM      6  N   LYS A   3      18.082  11.049  -5.478  1.00  0.00    -0.343 N 
ATOM      7  C   ILE A   2      16.877  11.754  -5.735  1.00  0.00     0.243 C 
ATOM      8  O   ILE A   2      16.889  12.792  -6.454  1.00  0.00    -0.273 OA
ATOM      9  H   UNL     1      18.159  10.490  -4.602  1.00  0.00     0.164 HD
BRANCH   7  10
ATOM     10  CA  ILE A   2      15.621  11.278  -5.055  1.00  0.00     0.174 C 
BRANCH  10  11
ATOM     11  N   ILE A   2      14.438  11.732  -5.771  1.00  0.00    -0.343 N 
ATOM     12  C   SER A   1      13.914  13.048  -5.639  1.00  0.00     0.239 C 
ATOM     13  O   SER A   1      14.448  13.863  -4.837  1.00  0.00    -0.273 OA
ATOM     14  H   UNL     1      13.838  11.014  -6.226  1.00  0.00     0.164 HD
BRANCH  12  15
ATOM     15  CA  SER A   1      12.662  13.414  -6.391  1.00  0.00     0.167 C 
BRANCH  15  16
ATOM     16  N   SER A   1      12.474  14.866  -6.373  1.00  0.00    -0.318 NA
ATOM     17  H   UNL     1      13.208  15.322  -6.963  1.00  0.00     0.119 HD
ATOM     18  H   UNL     1      11.544  15.093  -6.795  1.00  0.00     0.119 HD
ENDBRANCH  15  16
BRANCH  15  19
ATOM     19  CB  SER A   1      12.688  12.888  -7.850  1.00  0.00     0.184 C 
BRANCH  19  20
ATOM     20  OG  SER A   1      11.434  13.049  -8.452  1.00  0.00    -0.394 OA
ATOM     21  H   UNL     1      10.837  12.361  -8.057  1.00  0.00     0.210 HD
ENDBRANCH  19  20
ENDBRANCH  15  19
ENDBRANCH  12  15
ENDBRANCH  10  11
BRANCH  10  22
ATOM     22  CB  ILE A   2      15.593   9.721  -4.913  1.00  0.00     0.018 C 
ATOM     23  CG1 ILE A   2      14.399   9.267  -4.072  1.00  0.00     0.010 C 
BRANCH  22  24
ATOM     24  CG2 ILE A   2      15.635   8.978  -6.280  1.00  0.00     0.002 C 
ATOM     25  CD1 ILE A   2      16.230   7.575  -6.161  1.00  0.00     0.004 C 
ENDBRANCH  22  24
ENDBRANCH  10  22
ENDBRANCH   7  10
ENDBRANCH   5   6
BRANCH   5  26
ATOM     26  CB  LYS A   3      20.200  12.237  -5.243  1.00  0.00     0.035 C 
BRANCH  26  27
ATOM     27  CG  LYS A   3      20.419  11.690  -3.816  1.00  0.00     0.004 C 
BRANCH  27  28
ATOM     28  CD  LYS A   3      21.771  12.149  -3.266  1.00  0.00     0.015 C 
BRANCH  28  29
ATOM     29  CE  LYS A   3      21.836  11.961  -1.744  1.00  0.00     0.077 C 
BRANCH  29  30
ATOM     30  NZ  LYS A   3      22.943  12.729  -1.184  1.00  0.00    -0.330 NA
ATOM     31  H   UNL     1      23.009  12.498  -0.166  1.00  0.00     0.118 HD
ATOM     32  H   UNL     1      22.701  13.746  -1.241  1.00  0.00     0.118 HD
ENDBRANCH  29  30
ENDBRANCH  28  29
ENDBRANCH  27  28
ENDBRANCH  26  27
ENDBRANCH   5  26
ENDBRANCH   1   5
BRANCH   3  33
ATOM     33  CA  LEU A   4      21.348   8.760  -8.142  1.00  0.00     0.171 C 
BRANCH  33  34
ATOM     34  C   LEU A   4      22.713   9.216  -8.522  1.00  0.00     0.243 C 
ATOM     35  N   ARG A   5      23.822   8.721  -7.786  1.00  0.00    -0.343 N 
ATOM     36  O   LEU A   4      22.877  10.033  -9.469  1.00  0.00    -0.273 OA
ATOM     37  H   UNL     1      23.666   8.031  -7.016  1.00  0.00     0.164 HD
BRANCH  35  38
ATOM     38  CA  ARG A   5      25.185   9.122  -8.073  1.00  0.00     0.171 C 
BRANCH  38  39
ATOM     39  C   ARG A   5      25.900   7.968  -8.685  1.00  0.00     0.243 C 
ATOM     40  N   ASN A   6      25.913   7.864 -10.102  1.00  0.00    -0.341 N 
ATOM     41  O   ARG A   5      26.447   7.087  -7.969  1.00  0.00    -0.273 OA
ATOM     42  H   UNL     1      25.489   8.647 -10.651  1.00  0.00     0.164 HD
BRANCH  40  43
ATOM     43  CA  ASN A   6      26.542   6.751 -10.804  1.00  0.00     0.201 C 
BRANCH  43  44
ATOM     44  C   ASN A   6      27.993   6.642 -10.416  1.00  0.00     0.326 C 
ATOM     45  O   ASN A   6      28.794   7.579 -10.677  1.00  0.00    -0.250 OA
BRANCH  44  46
ATOM     46  OXT ASN A   6      28.451   5.499  -9.768  1.00  0.00    -0.480 OA
ATOM     47  H   UNL     1      29.424   5.409  -9.499  1.00  0.00     0.296 HD
ENDBRANCH  44  46
ENDBRANCH  43  44
BRANCH  43  48
ATOM     48  CB  ASN A   6      26.424   6.946 -12.323  1.00  0.00     0.136 C 
BRANCH  48  49
ATOM     49  CG  ASN A   6      25.010   7.180 -12.773  1.00  0.00     0.220 C 
ATOM     50  ND2 ASN A   6      24.753   8.090 -13.833  1.00  0.00    -0.370 N 
ATOM     51  OD1 ASN A   6      24.053   6.558 -12.243  1.00  0.00    -0.275 OA
ATOM     52  H   UNL     1      25.533   8.600 -14.306  1.00  0.00     0.159 HD
ATOM     53  H   UNL     1      23.775   8.258 -14.156  1.00  0.00     0.159 HD
ENDBRANCH  48  49
ENDBRANCH  43  48
ENDBRANCH  40  43
ENDBRANCH  38  39
BRANCH  38  54
ATOM     54  CB  ARG A   5      25.862   9.606  -6.796  1.00  0.00     0.037 C 
BRANCH  54  55
ATOM     55  CG  ARG A   5      25.165  10.861  -6.272  1.00  0.00     0.024 C 
BRANCH  55  56
ATOM     56  CD  ARG A   5      25.838  11.394  -5.016  1.00  0.00     0.116 C 
BRANCH  56  57
ATOM     57  NE  ARG A   5      25.379  10.683  -3.825  1.00  0.00    -0.357 N 
ATOM     58  CZ  ARG A   5      25.478  11.271  -2.528  1.00  0.00     0.185 C 
ATOM     59  NH2 ARG A   5      26.104  12.539  -2.349  1.00  0.00    -0.370 N 
ATOM     60  H   UNL     1      24.901   9.758  -3.925  1.00  0.00     0.163 HD
ATOM     61  H   UNL     1      26.678  12.992  -3.093  1.00  0.00     0.159 HD
ATOM     62  H   UNL     1      26.084  13.000  -1.412  1.00  0.00     0.159 HD
BRANCH  58  63
ATOM     63  NH1 ARG A   5      24.984  10.659  -1.499  1.00  0.00    -0.270 NA
ATOM     64  H   UNL     1      24.511   9.732  -1.584  1.00  0.00     0.191 HD
ENDBRANCH  58  63
ENDBRANCH  56  57
ENDBRANCH  55  56
ENDBRANCH  54  55
ENDBRANCH  38  54
ENDBRANCH  35  38
ENDBRANCH  33  34
BRANCH  33  65
ATOM     65  CB  LEU A   4      20.655   7.999  -9.273  1.00  0.00     0.038 C 
BRANCH  65  66
ATOM     66  CG  LEU A   4      21.448   6.770  -9.769  1.00  0.00    -0.015 C 
ATOM     67  CD1 LEU A   4      21.762   5.778  -8.639  1.00  0.00     0.007 C 
ATOM     68  CD2 LEU A   4      20.661   6.067 -10.878  1.00  0.00     0.007 C 
ENDBRANCH  65  66
ENDBRANCH  33  65
ENDBRANCH   3  33
TORSDOF 31
