REMARK SMILES CC[C@H](C)[C@H](NC(=O)CNC(=O)[C@H](Cc1ccccc1)NC(=O)[C@@H](N)CO)C(=O)N[C@@H](CCCNC(=N)N)C(=O)N[C@@H](CC(N)=O)C(=O)O
REMARK SMILES IDX 7 1 8 2 6 3 9 5 10 6 11 7 12 8 13 10 21 11 22 12 23 13 24 15
REMARK SMILES IDX 25 16 26 19 27 20 14 22 15 23 16 24 20 25 17 26 19 27 18 28
REMARK SMILES IDX 5 29 28 30 30 31 29 32 31 34 39 35 41 36 40 37 42 39 47 40
REMARK SMILES IDX 48 41 49 42 43 44 44 45 45 46 46 47 32 50 33 51 34 52 35 53
REMARK SMILES IDX 36 54 38 55 37 59 3 61 4 62 2 63 1 64
REMARK H PARENT 6 4 10 9 21 14 25 17 25 18 27 21 30 33 41 38 49 43 45 48 45 49
REMARK H PARENT 35 56 38 57 38 58 37 60
ROOT
ATOM      1  C   GLY A   3       1.486  -0.861  -0.651  1.00  0.00     0.240 C 
ATOM      2  O   GLY A   3       1.809  -0.466   0.505  1.00  0.00    -0.273 OA
ATOM      3  N   ILE A   4       0.275  -0.398  -1.264  1.00  0.00    -0.343 N 
ATOM      4  H   UNL     1      -0.061  -0.901  -2.119  1.00  0.00     0.164 HD
ENDROOT
BRANCH   1   5
ATOM      5  CA  GLY A   3       2.340  -1.855  -1.382  1.00  0.00     0.216 C 
BRANCH   5   6
ATOM      6  N   GLY A   3       3.639  -2.051  -0.738  1.00  0.00    -0.345 N 
ATOM      7  C   PHE A   2       4.663  -1.045  -0.748  1.00  0.00     0.243 C 
ATOM      8  O   PHE A   2       4.390   0.122  -1.142  1.00  0.00    -0.273 OA
ATOM      9  H   UNL     1       3.871  -3.011  -0.397  1.00  0.00     0.164 HD
BRANCH   7  10
ATOM     10  CA  PHE A   2       6.075  -1.404  -0.350  1.00  0.00     0.175 C 
BRANCH  10  11
ATOM     11  N   PHE A   2       6.994  -0.277  -0.566  1.00  0.00    -0.343 N 
ATOM     12  C   SER A   1       7.005   0.923   0.225  1.00  0.00     0.239 C 
ATOM     13  O   SER A   1       6.082   1.146   1.056  1.00  0.00    -0.273 OA
ATOM     14  H   UNL     1       7.697  -0.371  -1.335  1.00  0.00     0.164 HD
BRANCH  12  15
ATOM     15  CA  SER A   1       8.086   1.955   0.044  1.00  0.00     0.167 C 
BRANCH  15  16
ATOM     16  N   SER A   1       9.369   1.310  -0.250  1.00  0.00    -0.318 NA
ATOM     17  H   UNL     1       9.613   0.674   0.547  1.00  0.00     0.119 HD
ATOM     18  H   UNL     1      10.113   2.045  -0.259  1.00  0.00     0.119 HD
ENDBRANCH  15  16
BRANCH  15  19
ATOM     19  CB  SER A   1       7.701   2.914  -1.096  1.00  0.00     0.184 C 
BRANCH  19  20
ATOM     20  OG  SER A   1       6.545   3.644  -0.763  1.00  0.00    -0.394 OA
ATOM     21  H   UNL     1       6.824   4.338  -0.108  1.00  0.00     0.210 HD
ENDBRANCH  19  20
ENDBRANCH  15  19
ENDBRANCH  12  15
ENDBRANCH  10  11
BRANCH  10  22
ATOM     22  CB  PHE A   2       6.153  -1.938   1.099  1.00  0.00     0.070 C 
BRANCH  22  23
ATOM     23  CG  PHE A   2       7.580  -2.208   1.517  1.00  0.00    -0.045 A 
ATOM     24  CD1 PHE A   2       8.243  -1.334   2.398  1.00  0.00     0.004 A 
ATOM     25  CD2 PHE A   2       8.272  -3.317   1.001  1.00  0.00     0.004 A 
ATOM     26  CE1 PHE A   2       9.577  -1.564   2.751  1.00  0.00     0.000 A 
ATOM     27  CE2 PHE A   2       9.607  -3.544   1.355  1.00  0.00     0.000 A 
ATOM     28  CZ  PHE A   2      10.257  -2.670   2.233  1.00  0.00     0.000 A 
ENDBRANCH  22  23
ENDBRANCH  10  22
ENDBRANCH   7  10
ENDBRANCH   5   6
ENDBRANCH   1   5
BRANCH   3  29
ATOM     29  CA  ILE A   4      -0.576   0.635  -0.658  1.00  0.00     0.174 C 
BRANCH  29  30
ATOM     30  C   ILE A   4      -1.617   0.013   0.240  1.00  0.00     0.243 C 
ATOM     31  N   ARG A   5      -2.385   0.844   1.122  1.00  0.00    -0.343 N 
ATOM     32  O   ILE A   4      -1.839  -1.229   0.189  1.00  0.00    -0.273 OA
ATOM     33  H   UNL     1      -2.138   1.860   1.191  1.00  0.00     0.164 HD
BRANCH  31  34
ATOM     34  CA  ARG A   5      -3.634   0.379   1.730  1.00  0.00     0.171 C 
BRANCH  34  35
ATOM     35  C   ARG A   5      -4.706   0.377   0.669  1.00  0.00     0.243 C 
ATOM     36  N   ASN A   6      -5.126  -0.863   0.076  1.00  0.00    -0.341 N 
ATOM     37  O   ARG A   5      -5.177   1.472   0.252  1.00  0.00    -0.273 OA
ATOM     38  H   UNL     1      -4.795  -1.756   0.509  1.00  0.00     0.164 HD
BRANCH  36  39
ATOM     39  CA  ASN A   6      -6.090  -0.935  -1.025  1.00  0.00     0.201 C 
BRANCH  39  40
ATOM     40  C   ASN A   6      -7.455  -1.248  -0.477  1.00  0.00     0.326 C 
ATOM     41  O   ASN A   6      -7.615  -2.194   0.342  1.00  0.00    -0.250 OA
BRANCH  40  42
ATOM     42  OXT ASN A   6      -8.552  -0.505  -0.901  1.00  0.00    -0.480 OA
ATOM     43  H   UNL     1      -9.483  -0.712  -0.559  1.00  0.00     0.296 HD
ENDBRANCH  40  42
ENDBRANCH  39  40
BRANCH  39  44
ATOM     44  CB  ASN A   6      -5.635  -1.999  -2.039  1.00  0.00     0.136 C 
BRANCH  44  45
ATOM     45  CG  ASN A   6      -6.564  -2.105  -3.216  1.00  0.00     0.220 C 
ATOM     46  ND2 ASN A   6      -6.642  -1.053  -4.179  1.00  0.00    -0.370 N 
ATOM     47  OD1 ASN A   6      -7.278  -3.133  -3.356  1.00  0.00    -0.275 OA
ATOM     48  H   UNL     1      -7.252  -1.157  -5.018  1.00  0.00     0.159 HD
ATOM     49  H   UNL     1      -6.082  -0.182  -4.064  1.00  0.00     0.159 HD
ENDBRANCH  44  45
ENDBRANCH  39  44
ENDBRANCH  36  39
ENDBRANCH  34  35
BRANCH  34  50
ATOM     50  CB  ARG A   5      -4.007   1.274   2.935  1.00  0.00     0.037 C 
BRANCH  50  51
ATOM     51  CG  ARG A   5      -4.901   0.582   3.986  1.00  0.00     0.024 C 
BRANCH  51  52
ATOM     52  CD  ARG A   5      -6.288   0.152   3.483  1.00  0.00     0.116 C 
BRANCH  52  53
ATOM     53  NE  ARG A   5      -7.084   1.292   3.020  1.00  0.00    -0.357 N 
ATOM     54  CZ  ARG A   5      -8.391   1.120   2.455  1.00  0.00     0.185 C 
ATOM     55  NH2 ARG A   5      -9.088   2.251   1.925  1.00  0.00    -0.370 N 
ATOM     56  H   UNL     1      -6.711   2.259   3.107  1.00  0.00     0.163 HD
ATOM     57  H   UNL     1     -10.030   2.140   1.486  1.00  0.00     0.159 HD
ATOM     58  H   UNL     1      -8.669   3.206   1.986  1.00  0.00     0.159 HD
BRANCH  54  59
ATOM     59  NH1 ARG A   5      -8.927  -0.058   2.402  1.00  0.00    -0.270 NA
ATOM     60  H   UNL     1      -9.875  -0.212   1.992  1.00  0.00     0.191 HD
ENDBRANCH  54  59
ENDBRANCH  52  53
ENDBRANCH  51  52
ENDBRANCH  50  51
ENDBRANCH  34  50
ENDBRANCH  31  34
ENDBRANCH  29  30
BRANCH  29  61
ATOM     61  CB  ILE A   4      -1.232   1.537  -1.743  1.00  0.00     0.018 C 
ATOM     62  CG1 ILE A   4      -0.152   2.304  -2.525  1.00  0.00     0.010 C 
BRANCH  61  63
ATOM     63  CG2 ILE A   4      -2.169   0.758  -2.706  1.00  0.00     0.002 C 
ATOM     64  CD1 ILE A   4      -3.243   1.655  -3.328  1.00  0.00     0.004 C 
ENDBRANCH  61  63
ENDBRANCH  29  61
ENDBRANCH   3  29
TORSDOF 26
