REMARK SMILES CC[C@H](C)[C@H](NC(=O)[C@H](CCCNC(=N)N)NC(=O)[C@H](Cc1ccccc1)NC(=O)[C@@H](N)CO)C(=O)N[C@@H](CCCNC(=N)N)C(=O)N[C@@H](CC(N)=O)C(=O)O
REMARK SMILES IDX 7 1 8 2 6 3 9 5 17 6 18 7 19 8 20 10 28 11 29 12 30 13 31 15
REMARK SMILES IDX 32 16 33 19 34 20 21 22 22 23 23 24 27 25 24 26 26 27 25 28
REMARK SMILES IDX 10 29 11 30 12 31 13 32 14 33 16 34 15 38 5 40 35 41 37 42
REMARK SMILES IDX 36 43 38 45 46 46 48 47 47 48 49 50 54 51 55 52 56 53 50 55
REMARK SMILES IDX 51 56 52 57 53 58 39 61 40 62 41 63 42 64 43 65 45 66 44 70
REMARK SMILES IDX 3 72 4 73 2 74 1 75
REMARK H PARENT 6 4 17 9 28 14 32 17 32 18 34 21 13 35 16 36 16 37 15 39 37 44
REMARK H PARENT 48 49 56 54 52 59 52 60 42 67 45 68 45 69 44 71
ROOT
ATOM      1  C   ARG A   3       1.046   0.362  -0.178  1.00  0.00     0.243 C 
ATOM      2  O   ARG A   3       0.500  -0.164   0.836  1.00  0.00    -0.273 OA
ATOM      3  N   ILE A   4       0.410   1.465  -0.844  1.00  0.00    -0.342 N 
ATOM      4  H   UNL     1       0.849   1.807  -1.732  1.00  0.00     0.164 HD
ENDROOT
BRANCH   1   5
ATOM      5  CA  ARG A   3       2.357  -0.184  -0.686  1.00  0.00     0.171 C 
BRANCH   5   6
ATOM      6  N   ARG A   3       3.138  -0.696   0.445  1.00  0.00    -0.343 N 
ATOM      7  C   PHE A   2       4.286  -0.023   0.987  1.00  0.00     0.243 C 
ATOM      8  O   PHE A   2       4.770   0.987   0.401  1.00  0.00    -0.273 OA
ATOM      9  H   UNL     1       2.799  -1.560   0.927  1.00  0.00     0.164 HD
BRANCH   7  10
ATOM     10  CA  PHE A   2       4.945  -0.579   2.224  1.00  0.00     0.175 C 
BRANCH  10  11
ATOM     11  N   PHE A   2       5.791  -1.729   1.878  1.00  0.00    -0.343 N 
ATOM     12  C   SER A   1       6.975  -1.649   1.062  1.00  0.00     0.239 C 
ATOM     13  O   SER A   1       7.267  -0.572   0.475  1.00  0.00    -0.273 OA
ATOM     14  H   UNL     1       5.496  -2.658   2.250  1.00  0.00     0.164 HD
BRANCH  12  15
ATOM     15  CA  SER A   1       7.867  -2.852   0.844  1.00  0.00     0.167 C 
BRANCH  15  16
ATOM     16  N   SER A   1       8.079  -3.627   2.070  1.00  0.00    -0.318 NA
ATOM     17  H   UNL     1       8.378  -2.989   2.842  1.00  0.00     0.119 HD
ATOM     18  H   UNL     1       7.187  -4.077   2.376  1.00  0.00     0.119 HD
ENDBRANCH  15  16
BRANCH  15  19
ATOM     19  CB  SER A   1       7.324  -3.740  -0.287  1.00  0.00     0.184 C 
BRANCH  19  20
ATOM     20  OG  SER A   1       6.007  -4.153  -0.035  1.00  0.00    -0.394 OA
ATOM     21  H   UNL     1       6.062  -4.998   0.487  1.00  0.00     0.210 HD
ENDBRANCH  19  20
ENDBRANCH  15  19
ENDBRANCH  12  15
ENDBRANCH  10  11
BRANCH  10  22
ATOM     22  CB  PHE A   2       5.731   0.489   3.013  1.00  0.00     0.070 C 
BRANCH  22  23
ATOM     23  CG  PHE A   2       6.329  -0.087   4.272  1.00  0.00    -0.045 A 
ATOM     24  CD1 PHE A   2       7.684  -0.455   4.317  1.00  0.00     0.004 A 
ATOM     25  CD2 PHE A   2       5.517  -0.311   5.397  1.00  0.00     0.004 A 
ATOM     26  CE1 PHE A   2       8.217  -1.036   5.472  1.00  0.00     0.000 A 
ATOM     27  CE2 PHE A   2       6.054  -0.888   6.553  1.00  0.00     0.000 A 
ATOM     28  CZ  PHE A   2       7.405  -1.246   6.592  1.00  0.00     0.000 A 
ENDBRANCH  22  23
ENDBRANCH  10  22
ENDBRANCH   7  10
ENDBRANCH   5   6
BRANCH   5  29
ATOM     29  CB  ARG A   3       2.150  -1.331  -1.703  1.00  0.00     0.037 C 
BRANCH  29  30
ATOM     30  CG  ARG A   3       1.805  -0.861  -3.132  1.00  0.00     0.024 C 
BRANCH  30  31
ATOM     31  CD  ARG A   3       0.303  -0.908  -3.432  1.00  0.00     0.116 C 
BRANCH  31  32
ATOM     32  NE  ARG A   3       0.054  -0.593  -4.836  1.00  0.00    -0.357 N 
ATOM     33  CZ  ARG A   3       0.109   0.739  -5.364  1.00  0.00     0.185 C 
ATOM     34  NH2 ARG A   3      -0.092   0.953  -6.766  1.00  0.00    -0.370 N 
ATOM     35  H   UNL     1      -0.244  -1.371  -5.472  1.00  0.00     0.163 HD
ATOM     36  H   UNL     1      -0.263   0.143  -7.405  1.00  0.00     0.159 HD
ATOM     37  H   UNL     1      -0.055   1.917  -7.167  1.00  0.00     0.159 HD
BRANCH  33  38
ATOM     38  NH1 ARG A   3       0.320   1.748  -4.577  1.00  0.00    -0.270 NA
ATOM     39  H   UNL     1       0.351   2.728  -4.938  1.00  0.00     0.191 HD
ENDBRANCH  33  38
ENDBRANCH  31  32
ENDBRANCH  30  31
ENDBRANCH  29  30
ENDBRANCH   5  29
ENDBRANCH   1   5
BRANCH   3  40
ATOM     40  CA  ILE A   4      -0.800   2.125  -0.314  1.00  0.00     0.174 C 
BRANCH  40  41
ATOM     41  C   ILE A   4      -1.977   1.165  -0.325  1.00  0.00     0.243 C 
ATOM     42  N   ARG A   5      -3.205   1.490   0.348  1.00  0.00    -0.343 N 
ATOM     43  O   ILE A   4      -1.881   0.073  -0.948  1.00  0.00    -0.273 OA
ATOM     44  H   UNL     1      -3.255   2.378   0.888  1.00  0.00     0.164 HD
BRANCH  42  45
ATOM     45  CA  ARG A   5      -4.366   0.593   0.289  1.00  0.00     0.171 C 
BRANCH  45  46
ATOM     46  C   ARG A   5      -4.799   0.423  -1.145  1.00  0.00     0.243 C 
ATOM     47  N   ASN A   6      -4.791  -0.882  -1.742  1.00  0.00    -0.341 N 
ATOM     48  O   ARG A   5      -5.145   1.434  -1.815  1.00  0.00    -0.273 OA
ATOM     49  H   UNL     1      -4.587  -1.702  -1.128  1.00  0.00     0.164 HD
BRANCH  47  50
ATOM     50  CA  ASN A   6      -5.008  -1.115  -3.175  1.00  0.00     0.201 C 
BRANCH  50  51
ATOM     51  C   ASN A   6      -6.207  -1.997  -3.396  1.00  0.00     0.326 C 
ATOM     52  O   ASN A   6      -6.587  -2.811  -2.509  1.00  0.00    -0.250 OA
BRANCH  51  53
ATOM     53  OXT ASN A   6      -6.886  -1.933  -4.609  1.00  0.00    -0.480 OA
ATOM     54  H   UNL     1      -7.687  -2.530  -4.788  1.00  0.00     0.296 HD
ENDBRANCH  51  53
ENDBRANCH  50  51
BRANCH  50  55
ATOM     55  CB  ASN A   6      -3.737  -1.697  -3.828  1.00  0.00     0.136 C 
BRANCH  55  56
ATOM     56  CG  ASN A   6      -3.318  -3.010  -3.232  1.00  0.00     0.220 C 
ATOM     57  ND2 ASN A   6      -3.854  -4.243  -3.718  1.00  0.00    -0.370 N 
ATOM     58  OD1 ASN A   6      -2.500  -3.024  -2.274  1.00  0.00    -0.275 OA
ATOM     59  H   UNL     1      -4.564  -4.248  -4.479  1.00  0.00     0.159 HD
ATOM     60  H   UNL     1      -3.561  -5.147  -3.285  1.00  0.00     0.159 HD
ENDBRANCH  55  56
ENDBRANCH  50  55
ENDBRANCH  47  50
ENDBRANCH  45  46
BRANCH  45  61
ATOM     61  CB  ARG A   5      -5.525   1.130   1.153  1.00  0.00     0.037 C 
BRANCH  61  62
ATOM     62  CG  ARG A   5      -6.707   0.142   1.213  1.00  0.00     0.024 C 
BRANCH  62  63
ATOM     63  CD  ARG A   5      -7.861   0.671   2.069  1.00  0.00     0.116 C 
BRANCH  63  64
ATOM     64  NE  ARG A   5      -7.469   0.736   3.477  1.00  0.00    -0.357 N 
ATOM     65  CZ  ARG A   5      -7.259   1.966   4.188  1.00  0.00     0.185 C 
ATOM     66  NH2 ARG A   5      -6.867   1.929   5.561  1.00  0.00    -0.370 N 
ATOM     67  H   UNL     1      -7.280  -0.165   3.973  1.00  0.00     0.163 HD
ATOM     68  H   UNL     1      -6.733   1.019   6.053  1.00  0.00     0.159 HD
ATOM     69  H   UNL     1      -6.715   2.805   6.102  1.00  0.00     0.159 HD
BRANCH  65  70
ATOM     70  NH1 ARG A   5      -7.417   3.107   3.592  1.00  0.00    -0.270 NA
ATOM     71  H   UNL     1      -7.260   4.009   4.097  1.00  0.00     0.191 HD
ENDBRANCH  65  70
ENDBRANCH  63  64
ENDBRANCH  62  63
ENDBRANCH  61  62
ENDBRANCH  45  61
ENDBRANCH  42  45
ENDBRANCH  40  41
BRANCH  40  72
ATOM     72  CB  ILE A   4      -1.072   3.463  -1.100  1.00  0.00     0.018 C 
ATOM     73  CG1 ILE A   4      -2.127   3.324  -2.209  1.00  0.00     0.010 C 
BRANCH  72  74
ATOM     74  CG2 ILE A   4      -1.428   4.640  -0.156  1.00  0.00     0.002 C 
ATOM     75  CD1 ILE A   4      -0.183   5.242   0.499  1.00  0.00     0.004 C 
ENDBRANCH  72  74
ENDBRANCH  40  72
ENDBRANCH   3  40
TORSDOF 31
