REMARK SMILES CC(C)C[C@H](NC(=O)[C@H](CO)NC(=O)[C@H](Cc1ccccc1)NC(=O)[C@@H](N)CO)C(=O)N[C@@H](CCCNC(=N)N)C(=O)N[C@@H](CO)C(=O)O
REMARK SMILES IDX 7 1 8 2 6 3 9 5 12 6 13 7 14 8 15 10 23 11 24 12 25 13 26 15
REMARK SMILES IDX 27 16 28 19 29 20 16 22 17 23 18 24 22 25 19 26 21 27 20 28
REMARK SMILES IDX 10 29 11 30 5 32 30 33 32 34 31 35 33 37 41 38 43 39 42 40
REMARK SMILES IDX 44 42 47 43 48 44 49 45 45 47 46 48 34 50 35 51 36 52 37 53
REMARK SMILES IDX 38 54 40 55 39 59 4 61 2 62 1 63 3 64
REMARK H PARENT 6 4 12 9 23 14 27 17 27 18 29 21 11 31 32 36 43 41 49 46 46 49
REMARK H PARENT 37 56 40 57 40 58 39 60
ROOT
ATOM      1  C   SER A   3      20.047  10.098  -6.461  1.00  0.00     0.245 C 
ATOM      2  O   SER A   3      20.173   9.193  -5.589  1.00  0.00    -0.273 OA
ATOM      3  N   LEU A   4      20.561   9.920  -7.772  1.00  0.00    -0.342 N 
ATOM      4  H   UNL     1      20.393  10.656  -8.496  1.00  0.00     0.164 HD
ENDROOT
BRANCH   1   5
ATOM      5  CA  SER A   3      19.342  11.371  -6.140  1.00  0.00     0.197 C 
BRANCH   5   6
ATOM      6  N   SER A   3      18.094  11.056  -5.495  1.00  0.00    -0.340 N 
ATOM      7  C   PHE A   2      16.888  11.751  -5.772  1.00  0.00     0.243 C 
ATOM      8  O   PHE A   2      16.900  12.792  -6.486  1.00  0.00    -0.273 OA
ATOM      9  H   UNL     1      18.179  10.534  -4.597  1.00  0.00     0.164 HD
BRANCH   7  10
ATOM     10  CA  PHE A   2      15.652  11.314  -5.060  1.00  0.00     0.175 C 
BRANCH  10  11
ATOM     11  N   PHE A   2      14.453  11.739  -5.769  1.00  0.00    -0.343 N 
ATOM     12  C   SER A   1      13.914  13.049  -5.637  1.00  0.00     0.239 C 
ATOM     13  O   SER A   1      14.447  13.869  -4.840  1.00  0.00    -0.273 OA
ATOM     14  H   UNL     1      13.863  10.998  -6.206  1.00  0.00     0.164 HD
BRANCH  12  15
ATOM     15  CA  SER A   1      12.655  13.409  -6.387  1.00  0.00     0.167 C 
BRANCH  15  16
ATOM     16  N   SER A   1      12.467  14.861  -6.384  1.00  0.00    -0.318 NA
ATOM     17  H   UNL     1      12.301  15.172  -5.399  1.00  0.00     0.119 HD
ATOM     18  H   UNL     1      11.582  15.088  -6.894  1.00  0.00     0.119 HD
ENDBRANCH  15  16
BRANCH  15  19
ATOM     19  CB  SER A   1      12.698  12.894  -7.844  1.00  0.00     0.184 C 
BRANCH  19  20
ATOM     20  OG  SER A   1      11.440  13.041  -8.440  1.00  0.00    -0.394 OA
ATOM     21  H   UNL     1      11.550  12.779  -9.392  1.00  0.00     0.210 HD
ENDBRANCH  19  20
ENDBRANCH  15  19
ENDBRANCH  12  15
ENDBRANCH  10  11
BRANCH  10  22
ATOM     22  CB  PHE A   2      15.617   9.775  -4.891  1.00  0.00     0.070 C 
BRANCH  22  23
ATOM     23  CG  PHE A   2      14.447   9.289  -4.089  1.00  0.00    -0.045 A 
ATOM     24  CD1 PHE A   2      13.905  10.046  -3.033  1.00  0.00     0.004 A 
ATOM     25  CD2 PHE A   2      13.970   7.990  -4.310  1.00  0.00     0.004 A 
ATOM     26  CE1 PHE A   2      12.870   9.536  -2.261  1.00  0.00     0.000 A 
ATOM     27  CE2 PHE A   2      12.941   7.477  -3.522  1.00  0.00     0.000 A 
ATOM     28  CZ  PHE A   2      12.387   8.253  -2.503  1.00  0.00     0.000 A 
ENDBRANCH  22  23
ENDBRANCH  10  22
ENDBRANCH   7  10
ENDBRANCH   5   6
BRANCH   5  29
ATOM     29  CB  SER A   3      20.184  12.265  -5.227  1.00  0.00     0.191 C 
BRANCH  29  30
ATOM     30  OG  SER A   3      20.511  11.619  -4.023  1.00  0.00    -0.394 OA
ATOM     31  H   UNL     1      19.803  11.852  -3.367  1.00  0.00     0.210 HD
ENDBRANCH  29  30
ENDBRANCH   5  29
ENDBRANCH   1   5
BRANCH   3  32
ATOM     32  CA  LEU A   4      21.347   8.759  -8.138  1.00  0.00     0.171 C 
BRANCH  32  33
ATOM     33  C   LEU A   4      22.712   9.216  -8.520  1.00  0.00     0.243 C 
ATOM     34  N   ARG A   5      23.822   8.720  -7.787  1.00  0.00    -0.343 N 
ATOM     35  O   LEU A   4      22.875  10.033  -9.467  1.00  0.00    -0.273 OA
ATOM     36  H   UNL     1      23.668   8.030  -7.016  1.00  0.00     0.164 HD
BRANCH  34  37
ATOM     37  CA  ARG A   5      25.186   9.120  -8.079  1.00  0.00     0.171 C 
BRANCH  37  38
ATOM     38  C   ARG A   5      25.897   7.963  -8.692  1.00  0.00     0.243 C 
ATOM     39  N   SER A   6      25.886   7.840 -10.111  1.00  0.00    -0.339 N 
ATOM     40  O   ARG A   5      26.455   7.090  -7.974  1.00  0.00    -0.273 OA
ATOM     41  H   UNL     1      25.373   8.566 -10.663  1.00  0.00     0.164 HD
BRANCH  39  42
ATOM     42  CA  SER A   6      26.545   6.744 -10.814  1.00  0.00     0.218 C 
BRANCH  42  43
ATOM     43  C   SER A   6      27.994   6.653 -10.414  1.00  0.00     0.328 C 
ATOM     44  O   SER A   6      28.792   7.589 -10.685  1.00  0.00    -0.250 OA
BRANCH  43  45
ATOM     45  OXT SER A   6      28.455   5.524  -9.744  1.00  0.00    -0.480 OA
ATOM     46  H   UNL     1      29.427   5.445  -9.467  1.00  0.00     0.296 HD
ENDBRANCH  43  45
ENDBRANCH  42  43
BRANCH  42  47
ATOM     47  CB  SER A   6      26.415   6.955 -12.327  1.00  0.00     0.193 C 
BRANCH  47  48
ATOM     48  OG  SER A   6      26.987   5.874 -13.012  1.00  0.00    -0.394 OA
ATOM     49  H   UNL     1      26.877   6.072 -13.978  1.00  0.00     0.210 HD
ENDBRANCH  47  48
ENDBRANCH  42  47
ENDBRANCH  39  42
ENDBRANCH  37  38
BRANCH  37  50
ATOM     50  CB  ARG A   5      25.865   9.605  -6.801  1.00  0.00     0.037 C 
BRANCH  50  51
ATOM     51  CG  ARG A   5      25.168  10.859  -6.274  1.00  0.00     0.024 C 
BRANCH  51  52
ATOM     52  CD  ARG A   5      25.842  11.390  -5.016  1.00  0.00     0.116 C 
BRANCH  52  53
ATOM     53  NE  ARG A   5      25.378  10.684  -3.824  1.00  0.00    -0.357 N 
ATOM     54  CZ  ARG A   5      25.468  11.279  -2.528  1.00  0.00     0.185 C 
ATOM     55  NH2 ARG A   5      26.106  12.541  -2.351  1.00  0.00    -0.370 N 
ATOM     56  H   UNL     1      24.904   9.757  -3.922  1.00  0.00     0.163 HD
ATOM     57  H   UNL     1      26.692  12.983  -3.091  1.00  0.00     0.159 HD
ATOM     58  H   UNL     1      26.084  13.006  -1.416  1.00  0.00     0.159 HD
BRANCH  54  59
ATOM     59  NH1 ARG A   5      24.959  10.678  -1.500  1.00  0.00    -0.270 NA
ATOM     60  H   UNL     1      24.478   9.755  -1.584  1.00  0.00     0.191 HD
ENDBRANCH  54  59
ENDBRANCH  52  53
ENDBRANCH  51  52
ENDBRANCH  50  51
ENDBRANCH  37  50
ENDBRANCH  34  37
ENDBRANCH  32  33
BRANCH  32  61
ATOM     61  CB  LEU A   4      20.656   7.998  -9.271  1.00  0.00     0.038 C 
BRANCH  61  62
ATOM     62  CG  LEU A   4      21.449   6.770  -9.770  1.00  0.00    -0.015 C 
ATOM     63  CD1 LEU A   4      21.764   5.778  -8.640  1.00  0.00     0.007 C 
ATOM     64  CD2 LEU A   4      20.659   6.066 -10.876  1.00  0.00     0.007 C 
ENDBRANCH  61  62
ENDBRANCH  32  61
ENDBRANCH   3  32
TORSDOF 28
