REMARK SMILES CC(C)C[C@H](NC(=O)[C@H](CCC(N)=O)NC(=O)[C@H](Cc1ccccc1)NC(=O)CN)C(=O)N[C@@H](CCCNC(=N)N)C(=O)N[C@@H](CC(N)=O)C(=O)O
REMARK SMILES IDX 5 1 6 2 7 3 8 4 9 6 15 7 16 8 17 9 18 11 26 12 27 13 28 14
REMARK SMILES IDX 29 16 30 17 19 20 20 21 21 22 25 23 22 24 24 25 23 26 10 27
REMARK SMILES IDX 11 28 12 29 13 30 14 31 31 34 33 35 32 36 34 38 42 39 44 40
REMARK SMILES IDX 43 41 45 43 50 44 51 45 52 46 46 48 47 49 48 50 49 51 35 54
REMARK SMILES IDX 36 55 37 56 38 57 39 58 41 59 40 63 4 65 2 66 1 67 3 68
REMARK H PARENT 6 5 15 10 26 15 30 18 30 19 13 32 13 33 33 37 44 42 52 47
REMARK H PARENT 48 52 48 53 38 60 41 61 41 62 40 64
ROOT
ATOM      1  CA  LEU A   4      21.349   8.759  -8.141  1.00  0.00     0.171 C 
ENDROOT
BRANCH   1   2
ATOM      2  N   LEU A   4      20.564   9.920  -7.775  1.00  0.00    -0.343 N 
ATOM      3  C   GLN A   3      20.039  10.084  -6.468  1.00  0.00     0.243 C 
ATOM      4  O   GLN A   3      20.156   9.166  -5.610  1.00  0.00    -0.273 OA
ATOM      5  H   UNL     1      20.403  10.662  -8.495  1.00  0.00     0.164 HD
BRANCH   3   6
ATOM      6  CA  GLN A   3      19.336  11.357  -6.138  1.00  0.00     0.171 C 
BRANCH   6   7
ATOM      7  N   GLN A   3      18.084  11.049  -5.498  1.00  0.00    -0.342 N 
ATOM      8  C   PHE A   2      16.886  11.752  -5.778  1.00  0.00     0.243 C 
ATOM      9  O   PHE A   2      16.910  12.797  -6.485  1.00  0.00    -0.273 OA
ATOM     10  H   UNL     1      18.151  10.508  -4.610  1.00  0.00     0.164 HD
BRANCH   8  11
ATOM     11  CA  PHE A   2      15.640  11.318  -5.084  1.00  0.00     0.175 C 
BRANCH  11  12
ATOM     12  N   PHE A   2      14.463  11.769  -5.817  1.00  0.00    -0.343 N 
ATOM     13  C   GLY A   1      13.904  13.060  -5.614  1.00  0.00     0.234 C 
ATOM     14  O   GLY A   1      14.436  13.860  -4.797  1.00  0.00    -0.274 OA
ATOM     15  H   UNL     1      14.067  11.163  -6.572  1.00  0.00     0.164 HD
BRANCH  13  16
ATOM     16  CA  GLY A   1      12.657  13.434  -6.357  1.00  0.00     0.178 C 
BRANCH  16  17
ATOM     17  N   GLY A   1      12.471  14.880  -6.410  1.00  0.00    -0.322 NA
ATOM     18  H   UNL     1      13.325  15.321  -6.823  1.00  0.00     0.119 HD
ATOM     19  H   UNL     1      12.351  15.247  -5.438  1.00  0.00     0.119 HD
ENDBRANCH  16  17
ENDBRANCH  13  16
ENDBRANCH  11  12
BRANCH  11  20
ATOM     20  CB  PHE A   2      15.588   9.780  -4.923  1.00  0.00     0.070 C 
BRANCH  20  21
ATOM     21  CG  PHE A   2      14.434   9.295  -4.102  1.00  0.00    -0.045 A 
ATOM     22  CD1 PHE A   2      13.901  10.051  -3.040  1.00  0.00     0.004 A 
ATOM     23  CD2 PHE A   2      13.964   7.991  -4.313  1.00  0.00     0.004 A 
ATOM     24  CE1 PHE A   2      12.872   9.538  -2.260  1.00  0.00     0.000 A 
ATOM     25  CE2 PHE A   2      12.940   7.477  -3.518  1.00  0.00     0.000 A 
ATOM     26  CZ  PHE A   2      12.389   8.254  -2.499  1.00  0.00     0.000 A 
ENDBRANCH  20  21
ENDBRANCH  11  20
ENDBRANCH   8  11
ENDBRANCH   6   7
BRANCH   6  27
ATOM     27  CB  GLN A   3      20.188  12.255  -5.236  1.00  0.00     0.045 C 
BRANCH  27  28
ATOM     28  CG  GLN A   3      20.399  11.720  -3.803  1.00  0.00     0.102 C 
BRANCH  28  29
ATOM     29  CD  GLN A   3      21.773  12.051  -3.322  1.00  0.00     0.217 C 
ATOM     30  NE2 GLN A   3      22.132  13.394  -2.997  1.00  0.00    -0.370 N 
ATOM     31  OE1 GLN A   3      22.625  11.133  -3.224  1.00  0.00    -0.275 OA
ATOM     32  H   UNL     1      23.100  13.617  -2.674  1.00  0.00     0.159 HD
ATOM     33  H   UNL     1      21.434  14.166  -3.083  1.00  0.00     0.159 HD
ENDBRANCH  28  29
ENDBRANCH  27  28
ENDBRANCH   6  27
ENDBRANCH   3   6
ENDBRANCH   1   2
BRANCH   1  34
ATOM     34  C   LEU A   4      22.714   9.216  -8.521  1.00  0.00     0.243 C 
ATOM     35  N   ARG A   5      23.823   8.721  -7.785  1.00  0.00    -0.343 N 
ATOM     36  O   LEU A   4      22.878  10.032  -9.469  1.00  0.00    -0.273 OA
ATOM     37  H   UNL     1      23.667   8.031  -7.015  1.00  0.00     0.164 HD
BRANCH  35  38
ATOM     38  CA  ARG A   5      25.186   9.123  -8.073  1.00  0.00     0.171 C 
BRANCH  38  39
ATOM     39  C   ARG A   5      25.900   7.968  -8.685  1.00  0.00     0.243 C 
ATOM     40  N   ASN A   6      25.913   7.865 -10.102  1.00  0.00    -0.341 N 
ATOM     41  O   ARG A   5      26.447   7.087  -7.969  1.00  0.00    -0.273 OA
ATOM     42  H   UNL     1      25.489   8.647 -10.651  1.00  0.00     0.164 HD
BRANCH  40  43
ATOM     43  CA  ASN A   6      26.542   6.751 -10.804  1.00  0.00     0.201 C 
BRANCH  43  44
ATOM     44  C   ASN A   6      27.993   6.642 -10.416  1.00  0.00     0.326 C 
ATOM     45  O   ASN A   6      28.794   7.579 -10.677  1.00  0.00    -0.250 OA
BRANCH  44  46
ATOM     46  OXT ASN A   6      28.451   5.499  -9.768  1.00  0.00    -0.480 OA
ATOM     47  H   UNL     1      29.424   5.409  -9.499  1.00  0.00     0.296 HD
ENDBRANCH  44  46
ENDBRANCH  43  44
BRANCH  43  48
ATOM     48  CB  ASN A   6      26.424   6.947 -12.323  1.00  0.00     0.136 C 
BRANCH  48  49
ATOM     49  CG  ASN A   6      25.010   7.180 -12.773  1.00  0.00     0.220 C 
ATOM     50  ND2 ASN A   6      24.753   8.090 -13.833  1.00  0.00    -0.370 N 
ATOM     51  OD1 ASN A   6      24.053   6.558 -12.243  1.00  0.00    -0.275 OA
ATOM     52  H   UNL     1      23.775   8.258 -14.156  1.00  0.00     0.159 HD
ATOM     53  H   UNL     1      25.533   8.600 -14.306  1.00  0.00     0.159 HD
ENDBRANCH  48  49
ENDBRANCH  43  48
ENDBRANCH  40  43
ENDBRANCH  38  39
BRANCH  38  54
ATOM     54  CB  ARG A   5      25.864   9.606  -6.796  1.00  0.00     0.037 C 
BRANCH  54  55
ATOM     55  CG  ARG A   5      25.163  10.858  -6.266  1.00  0.00     0.024 C 
BRANCH  55  56
ATOM     56  CD  ARG A   5      25.843  11.394  -5.015  1.00  0.00     0.116 C 
BRANCH  56  57
ATOM     57  NE  ARG A   5      25.406  10.677  -3.820  1.00  0.00    -0.357 N 
ATOM     58  CZ  ARG A   5      25.487  11.276  -2.524  1.00  0.00     0.185 C 
ATOM     59  NH2 ARG A   5      26.106  12.548  -2.350  1.00  0.00    -0.370 N 
ATOM     60  H   UNL     1      24.966   9.733  -3.914  1.00  0.00     0.163 HD
ATOM     61  H   UNL     1      26.069  13.019  -1.419  1.00  0.00     0.159 HD
ATOM     62  H   UNL     1      26.689  12.993  -3.091  1.00  0.00     0.159 HD
BRANCH  58  63
ATOM     63  NH1 ARG A   5      24.980  10.674  -1.496  1.00  0.00    -0.270 NA
ATOM     64  H   UNL     1      24.512   9.744  -1.577  1.00  0.00     0.191 HD
ENDBRANCH  58  63
ENDBRANCH  56  57
ENDBRANCH  55  56
ENDBRANCH  54  55
ENDBRANCH  38  54
ENDBRANCH  35  38
ENDBRANCH   1  34
BRANCH   1  65
ATOM     65  CB  LEU A   4      20.656   7.999  -9.273  1.00  0.00     0.038 C 
BRANCH  65  66
ATOM     66  CG  LEU A   4      21.449   6.770  -9.769  1.00  0.00    -0.015 C 
ATOM     67  CD1 LEU A   4      21.762   5.778  -8.639  1.00  0.00     0.007 C 
ATOM     68  CD2 LEU A   4      20.662   6.066 -10.878  1.00  0.00     0.007 C 
ENDBRANCH  65  66
ENDBRANCH   1  65
TORSDOF 27
