REMARK SMILES CC(C)C[C@H](NC(=O)[C@H](Cc1ccccc1)NC(=O)CN)C(=O)N[C@@H](CO)C(=O)N[C@@H](CCCNC(=N)N)C(=O)N[C@@H](CC(N)=O)C(=O)O
REMARK SMILES IDX 25 1 24 2 22 3 23 4 5 6 6 7 7 8 8 9 9 11 17 12 18 13 19 14
REMARK SMILES IDX 20 16 21 17 10 20 11 21 12 22 16 23 13 24 15 25 14 26 4 27
REMARK SMILES IDX 2 28 1 29 3 30 28 31 30 32 29 33 31 35 39 36 41 37 40 38
REMARK SMILES IDX 42 40 47 41 48 42 49 43 43 45 44 46 45 47 46 48 32 51 33 52
REMARK SMILES IDX 34 53 35 54 36 55 38 56 37 60 26 62 27 63
REMARK H PARENT 24 5 6 10 17 15 21 18 21 19 30 34 41 39 49 44 45 49 45 50
REMARK H PARENT 35 57 38 58 38 59 37 61 27 64
ROOT
ATOM      1  CA  SER A   4      21.343   8.751  -8.163  1.00  0.00     0.197 C 
ENDROOT
BRANCH   1   2
ATOM      2  N   SER A   4      20.566   9.917  -7.785  1.00  0.00    -0.340 N 
ATOM      3  C   LEU A   3      20.052  10.081  -6.476  1.00  0.00     0.243 C 
ATOM      4  O   LEU A   3      20.165   9.156  -5.625  1.00  0.00    -0.273 OA
ATOM      5  H   UNL     1      20.426  10.676  -8.491  1.00  0.00     0.164 HD
BRANCH   3   6
ATOM      6  CA  LEU A   3      19.340  11.351  -6.144  1.00  0.00     0.171 C 
BRANCH   6   7
ATOM      7  N   LEU A   3      18.081  11.020  -5.534  1.00  0.00    -0.343 N 
ATOM      8  C   PHE A   2      16.888  11.747  -5.780  1.00  0.00     0.243 C 
ATOM      9  O   PHE A   2      16.915  12.799  -6.476  1.00  0.00    -0.273 OA
ATOM     10  H   UNL     1      18.149  10.389  -4.711  1.00  0.00     0.164 HD
BRANCH   8  11
ATOM     11  CA  PHE A   2      15.642  11.318  -5.081  1.00  0.00     0.175 C 
BRANCH  11  12
ATOM     12  N   PHE A   2      14.464  11.768  -5.815  1.00  0.00    -0.343 N 
ATOM     13  C   GLY A   1      13.903  13.059  -5.617  1.00  0.00     0.234 C 
ATOM     14  O   GLY A   1      14.432  13.863  -4.802  1.00  0.00    -0.274 OA
ATOM     15  H   UNL     1      14.070  11.159  -6.569  1.00  0.00     0.164 HD
BRANCH  13  16
ATOM     16  CA  GLY A   1      12.657  13.428  -6.360  1.00  0.00     0.178 C 
BRANCH  16  17
ATOM     17  N   GLY A   1      12.484  14.874  -6.399  1.00  0.00    -0.322 NA
ATOM     18  H   UNL     1      12.191  15.195  -5.447  1.00  0.00     0.119 HD
ATOM     19  H   UNL     1      11.682  15.082  -7.037  1.00  0.00     0.119 HD
ENDBRANCH  16  17
ENDBRANCH  13  16
ENDBRANCH  11  12
BRANCH  11  20
ATOM     20  CB  PHE A   2      15.585   9.780  -4.913  1.00  0.00     0.070 C 
BRANCH  20  21
ATOM     21  CG  PHE A   2      14.425   9.298  -4.104  1.00  0.00    -0.045 A 
ATOM     22  CD1 PHE A   2      13.896  10.052  -3.040  1.00  0.00     0.004 A 
ATOM     23  CD2 PHE A   2      13.959   7.993  -4.313  1.00  0.00     0.004 A 
ATOM     24  CE1 PHE A   2      12.869   9.538  -2.259  1.00  0.00     0.000 A 
ATOM     25  CE2 PHE A   2      12.938   7.477  -3.517  1.00  0.00     0.000 A 
ATOM     26  CZ  PHE A   2      12.387   8.253  -2.497  1.00  0.00     0.000 A 
ENDBRANCH  20  21
ENDBRANCH  11  20
ENDBRANCH   8  11
ENDBRANCH   6   7
BRANCH   6  27
ATOM     27  CB  LEU A   3      20.164  12.251  -5.215  1.00  0.00     0.038 C 
BRANCH  27  28
ATOM     28  CG  LEU A   3      20.417  11.679  -3.790  1.00  0.00    -0.015 C 
ATOM     29  CD1 LEU A   3      21.819  12.066  -3.316  1.00  0.00     0.007 C 
ATOM     30  CD2 LEU A   3      19.370  12.170  -2.780  1.00  0.00     0.007 C 
ENDBRANCH  27  28
ENDBRANCH   6  27
ENDBRANCH   3   6
ENDBRANCH   1   2
BRANCH   1  31
ATOM     31  C   SER A   4      22.713   9.200  -8.536  1.00  0.00     0.245 C 
ATOM     32  N   ARG A   5      23.818   8.706  -7.792  1.00  0.00    -0.342 N 
ATOM     33  O   SER A   4      22.883  10.031  -9.469  1.00  0.00    -0.273 OA
ATOM     34  H   UNL     1      23.661   7.984  -7.052  1.00  0.00     0.164 HD
BRANCH  32  35
ATOM     35  CA  ARG A   5      25.182   9.117  -8.071  1.00  0.00     0.171 C 
BRANCH  35  36
ATOM     36  C   ARG A   5      25.902   7.967  -8.685  1.00  0.00     0.243 C 
ATOM     37  N   ASN A   6      25.916   7.865 -10.102  1.00  0.00    -0.341 N 
ATOM     38  O   ARG A   5      26.450   7.086  -7.970  1.00  0.00    -0.273 OA
ATOM     39  H   UNL     1      25.496   8.651 -10.651  1.00  0.00     0.164 HD
BRANCH  37  40
ATOM     40  CA  ASN A   6      26.543   6.751 -10.804  1.00  0.00     0.201 C 
BRANCH  40  41
ATOM     41  C   ASN A   6      27.994   6.642 -10.417  1.00  0.00     0.326 C 
ATOM     42  O   ASN A   6      28.795   7.579 -10.677  1.00  0.00    -0.250 OA
BRANCH  41  43
ATOM     43  OXT ASN A   6      28.453   5.497  -9.772  1.00  0.00    -0.480 OA
ATOM     44  H   UNL     1      29.426   5.407  -9.505  1.00  0.00     0.296 HD
ENDBRANCH  41  43
ENDBRANCH  40  41
BRANCH  40  45
ATOM     45  CB  ASN A   6      26.424   6.946 -12.323  1.00  0.00     0.136 C 
BRANCH  45  46
ATOM     46  CG  ASN A   6      25.009   7.181 -12.772  1.00  0.00     0.220 C 
ATOM     47  ND2 ASN A   6      24.753   8.089 -13.834  1.00  0.00    -0.370 N 
ATOM     48  OD1 ASN A   6      24.051   6.563 -12.237  1.00  0.00    -0.275 OA
ATOM     49  H   UNL     1      23.775   8.258 -14.156  1.00  0.00     0.159 HD
ATOM     50  H   UNL     1      25.533   8.595 -14.309  1.00  0.00     0.159 HD
ENDBRANCH  45  46
ENDBRANCH  40  45
ENDBRANCH  37  40
ENDBRANCH  35  36
BRANCH  35  51
ATOM     51  CB  ARG A   5      25.856   9.599  -6.792  1.00  0.00     0.037 C 
BRANCH  51  52
ATOM     52  CG  ARG A   5      25.162  10.857  -6.270  1.00  0.00     0.024 C 
BRANCH  52  53
ATOM     53  CD  ARG A   5      25.838  11.390  -5.014  1.00  0.00     0.116 C 
BRANCH  53  54
ATOM     54  NE  ARG A   5      25.377  10.686  -3.820  1.00  0.00    -0.357 N 
ATOM     55  CZ  ARG A   5      25.469  11.281  -2.527  1.00  0.00     0.185 C 
ATOM     56  NH2 ARG A   5      26.107  12.546  -2.352  1.00  0.00    -0.370 N 
ATOM     57  H   UNL     1      24.894   9.763  -3.911  1.00  0.00     0.163 HD
ATOM     58  H   UNL     1      26.080  13.024  -1.424  1.00  0.00     0.159 HD
ATOM     59  H   UNL     1      26.696  12.982  -3.094  1.00  0.00     0.159 HD
BRANCH  55  60
ATOM     60  NH1 ARG A   5      24.955  10.672  -1.507  1.00  0.00    -0.270 NA
ATOM     61  H   UNL     1      24.996  11.077  -0.545  1.00  0.00     0.191 HD
ENDBRANCH  55  60
ENDBRANCH  53  54
ENDBRANCH  52  53
ENDBRANCH  51  52
ENDBRANCH  35  51
ENDBRANCH  32  35
ENDBRANCH   1  31
BRANCH   1  62
ATOM     62  CB  SER A   4      20.657   7.988  -9.297  1.00  0.00     0.191 C 
BRANCH  62  63
ATOM     63  OG  SER A   4      20.505   8.787 -10.441  1.00  0.00    -0.394 OA
ATOM     64  H   UNL     1      19.638   9.262 -10.348  1.00  0.00     0.210 HD
ENDBRANCH  62  63
ENDBRANCH   1  62
TORSDOF 26
