REMARK SMILES CC(C)C[C@H](NC(=O)[C@H](Cc1c[nH]cn1)NC(=O)[C@@H](N)CO)C(=O)N[C@@H](Cc1ccccc1)C(=O)N[C@@H](CCCNC(=N)N)C(=O)N[C@@H](CC(N)=O)C(=O)O
REMARK SMILES IDX 23 1 24 2 25 3 5 5 6 6 7 7 8 8 9 10 16 11 17 12 18 13 19 15
REMARK SMILES IDX 20 16 21 19 22 20 10 22 11 23 15 24 12 25 14 26 13 27 4 29
REMARK SMILES IDX 2 30 1 31 3 32 26 33 34 34 36 35 35 36 37 38 45 39 47 40
REMARK SMILES IDX 46 41 48 43 53 44 54 45 55 46 49 48 50 49 51 50 52 51 38 54
REMARK SMILES IDX 39 55 40 56 41 57 42 58 44 59 43 63 27 65 28 66 29 67 33 68
REMARK SMILES IDX 30 69 32 70 31 71
REMARK H PARENT 25 4 6 9 16 14 20 17 20 18 22 21 13 28 36 37 47 42 55 47 51 52
REMARK H PARENT 51 53 41 60 44 61 44 62 43 64
ROOT
ATOM      1  C   LEU A   3      20.046  10.081  -6.474  1.00  0.00     0.243 C 
ATOM      2  O   LEU A   3      20.160   9.158  -5.621  1.00  0.00    -0.273 OA
ATOM      3  N   PHE A   4      20.569   9.917  -7.781  1.00  0.00    -0.342 N 
ATOM      4  H   UNL     1      20.408  10.659  -8.501  1.00  0.00     0.164 HD
ENDROOT
BRANCH   1   5
ATOM      5  CA  LEU A   3      19.327  11.348  -6.140  1.00  0.00     0.171 C 
BRANCH   5   6
ATOM      6  N   LEU A   3      18.071  11.012  -5.520  1.00  0.00    -0.342 N 
ATOM      7  C   HIS A   2      16.872  11.738  -5.744  1.00  0.00     0.243 C 
ATOM      8  O   HIS A   2      16.889  12.787  -6.448  1.00  0.00    -0.273 OA
ATOM      9  H   UNL     1      18.141  10.369  -4.705  1.00  0.00     0.164 HD
BRANCH   7  10
ATOM     10  CA  HIS A   2      15.623  11.283  -5.038  1.00  0.00     0.177 C 
BRANCH  10  11
ATOM     11  N   HIS A   2      14.439  11.729  -5.761  1.00  0.00    -0.342 N 
ATOM     12  C   SER A   1      13.913  13.045  -5.634  1.00  0.00     0.239 C 
ATOM     13  O   SER A   1      14.453  13.863  -4.839  1.00  0.00    -0.273 OA
ATOM     14  H   UNL     1      13.851  11.000  -6.221  1.00  0.00     0.164 HD
BRANCH  12  15
ATOM     15  CA  SER A   1      12.655  13.410  -6.384  1.00  0.00     0.167 C 
BRANCH  15  16
ATOM     16  N   SER A   1      12.470  14.863  -6.380  1.00  0.00    -0.318 NA
ATOM     17  H   UNL     1      11.584  15.090  -6.888  1.00  0.00     0.119 HD
ATOM     18  H   UNL     1      12.307  15.173  -5.393  1.00  0.00     0.119 HD
ENDBRANCH  15  16
BRANCH  15  19
ATOM     19  CB  SER A   1      12.696  12.898  -7.844  1.00  0.00     0.184 C 
BRANCH  19  20
ATOM     20  OG  SER A   1      11.440  13.038  -8.449  1.00  0.00    -0.394 OA
ATOM     21  H   UNL     1      10.858  12.329  -8.067  1.00  0.00     0.210 HD
ENDBRANCH  19  20
ENDBRANCH  15  19
ENDBRANCH  12  15
ENDBRANCH  10  11
BRANCH  10  22
ATOM     22  CB  HIS A   2      15.576   9.739  -4.903  1.00  0.00     0.093 C 
BRANCH  22  23
ATOM     23  CG  HIS A   2      14.399   9.292  -4.101  1.00  0.00     0.061 A 
ATOM     24  ND1 HIS A   2      13.293   8.732  -4.632  1.00  0.00    -0.242 NA
ATOM     25  CD2 HIS A   2      14.247   9.430  -2.739  1.00  0.00     0.107 A 
ATOM     26  CE1 HIS A   2      12.489   8.532  -3.566  1.00  0.00     0.196 A 
ATOM     27  NE2 HIS A   2      13.041   8.945  -2.409  1.00  0.00    -0.351 N 
ATOM     28  H   UNL     1      12.616   8.903  -1.457  1.00  0.00     0.167 HD
ENDBRANCH  22  23
ENDBRANCH  10  22
ENDBRANCH   7  10
ENDBRANCH   5   6
BRANCH   5  29
ATOM     29  CB  LEU A   3      20.157  12.250  -5.216  1.00  0.00     0.038 C 
BRANCH  29  30
ATOM     30  CG  LEU A   3      20.415  11.679  -3.791  1.00  0.00    -0.015 C 
ATOM     31  CD1 LEU A   3      21.818  12.067  -3.320  1.00  0.00     0.007 C 
ATOM     32  CD2 LEU A   3      19.369  12.169  -2.779  1.00  0.00     0.007 C 
ENDBRANCH  29  30
ENDBRANCH   5  29
ENDBRANCH   1   5
BRANCH   3  33
ATOM     33  CA  PHE A   4      21.352   8.750  -8.147  1.00  0.00     0.175 C 
BRANCH  33  34
ATOM     34  C   PHE A   4      22.716   9.205  -8.528  1.00  0.00     0.243 C 
ATOM     35  N   ARG A   5      23.823   8.715  -7.788  1.00  0.00    -0.343 N 
ATOM     36  O   PHE A   4      22.879  10.027  -9.471  1.00  0.00    -0.273 OA
ATOM     37  H   UNL     1      23.669   8.014  -7.027  1.00  0.00     0.164 HD
BRANCH  35  38
ATOM     38  CA  ARG A   5      25.186   9.120  -8.073  1.00  0.00     0.171 C 
BRANCH  38  39
ATOM     39  C   ARG A   5      25.901   7.967  -8.686  1.00  0.00     0.243 C 
ATOM     40  N   ASN A   6      25.914   7.864 -10.103  1.00  0.00    -0.341 N 
ATOM     41  O   ARG A   5      26.448   7.086  -7.970  1.00  0.00    -0.273 OA
ATOM     42  H   UNL     1      25.490   8.647 -10.651  1.00  0.00     0.164 HD
BRANCH  40  43
ATOM     43  CA  ASN A   6      26.543   6.751 -10.805  1.00  0.00     0.201 C 
BRANCH  43  44
ATOM     44  C   ASN A   6      27.993   6.642 -10.415  1.00  0.00     0.326 C 
ATOM     45  O   ASN A   6      28.795   7.578 -10.676  1.00  0.00    -0.250 OA
BRANCH  44  46
ATOM     46  OXT ASN A   6      28.451   5.499  -9.767  1.00  0.00    -0.480 OA
ATOM     47  H   UNL     1      29.423   5.409  -9.497  1.00  0.00     0.296 HD
ENDBRANCH  44  46
ENDBRANCH  43  44
BRANCH  43  48
ATOM     48  CB  ASN A   6      26.429   6.950 -12.325  1.00  0.00     0.136 C 
BRANCH  48  49
ATOM     49  CG  ASN A   6      25.017   7.186 -12.776  1.00  0.00     0.220 C 
ATOM     50  ND2 ASN A   6      24.759   8.093 -13.838  1.00  0.00    -0.370 N 
ATOM     51  OD1 ASN A   6      24.061   6.570 -12.241  1.00  0.00    -0.275 OA
ATOM     52  H   UNL     1      25.539   8.599 -14.313  1.00  0.00     0.159 HD
ATOM     53  H   UNL     1      23.780   8.261 -14.159  1.00  0.00     0.159 HD
ENDBRANCH  48  49
ENDBRANCH  43  48
ENDBRANCH  40  43
ENDBRANCH  38  39
BRANCH  38  54
ATOM     54  CB  ARG A   5      25.862   9.604  -6.795  1.00  0.00     0.037 C 
BRANCH  54  55
ATOM     55  CG  ARG A   5      25.165  10.860  -6.272  1.00  0.00     0.024 C 
BRANCH  55  56
ATOM     56  CD  ARG A   5      25.839  11.391  -5.015  1.00  0.00     0.116 C 
BRANCH  56  57
ATOM     57  NE  ARG A   5      25.378  10.684  -3.823  1.00  0.00    -0.357 N 
ATOM     58  CZ  ARG A   5      25.468  11.279  -2.527  1.00  0.00     0.185 C 
ATOM     59  NH2 ARG A   5      26.105  12.541  -2.350  1.00  0.00    -0.370 N 
ATOM     60  H   UNL     1      24.899   9.759  -3.922  1.00  0.00     0.163 HD
ATOM     61  H   UNL     1      26.691  12.983  -3.091  1.00  0.00     0.159 HD
ATOM     62  H   UNL     1      26.081  13.007  -1.416  1.00  0.00     0.159 HD
BRANCH  58  63
ATOM     63  NH1 ARG A   5      24.956  10.679  -1.500  1.00  0.00    -0.270 NA
ATOM     64  H   UNL     1      24.474   9.757  -1.584  1.00  0.00     0.191 HD
ENDBRANCH  58  63
ENDBRANCH  56  57
ENDBRANCH  55  56
ENDBRANCH  54  55
ENDBRANCH  38  54
ENDBRANCH  35  38
ENDBRANCH  33  34
BRANCH  33  65
ATOM     65  CB  PHE A   4      20.660   7.991  -9.282  1.00  0.00     0.070 C 
BRANCH  65  66
ATOM     66  CG  PHE A   4      21.386   6.752  -9.777  1.00  0.00    -0.045 A 
ATOM     67  CD1 PHE A   4      21.112   6.306 -11.084  1.00  0.00     0.004 A 
ATOM     68  CD2 PHE A   4      22.156   5.923  -8.932  1.00  0.00     0.004 A 
ATOM     69  CE1 PHE A   4      21.617   5.086 -11.544  1.00  0.00     0.000 A 
ATOM     70  CE2 PHE A   4      22.686   4.720  -9.408  1.00  0.00     0.000 A 
ATOM     71  CZ  PHE A   4      22.414   4.300 -10.711  1.00  0.00     0.000 A 
ENDBRANCH  65  66
ENDBRANCH  33  65
ENDBRANCH   3  33
TORSDOF 28
