REMARK SMILES CC(C)C[C@H](NC(=O)[C@H](Cc1ccccc1)NC(=O)[C@@H](N)CO)C(=O)N[C@@H](CC(N)=O)C(=O)N[C@@H](CCCNC(=N)N)C(=O)N[C@@H](C)C(=O)O
REMARK SMILES IDX 24 1 25 2 26 3 5 5 6 6 7 7 8 8 9 10 17 11 18 12 19 13 20 15
REMARK SMILES IDX 21 16 22 19 23 20 10 22 11 23 12 24 16 25 13 26 15 27 14 28
REMARK SMILES IDX 4 29 2 30 1 31 3 32 27 33 32 34 34 35 33 36 35 38 43 39
REMARK SMILES IDX 45 40 44 41 46 43 47 44 48 45 49 46 50 47 36 49 37 50 38 51
REMARK SMILES IDX 39 52 40 53 42 54 41 58 28 60 29 61 30 62 31 63
REMARK H PARENT 26 4 6 9 17 14 21 17 21 18 23 21 34 37 45 42 50 48 39 55 42 56
REMARK H PARENT 42 57 41 59 30 64 30 65
ROOT
ATOM      1  C   LEU A   3       0.701  -1.160  -1.066  1.00  0.00     0.243 C 
ATOM      2  O   LEU A   3       0.414   0.038  -0.787  1.00  0.00    -0.273 OA
ATOM      3  N   ASN A   4      -0.149  -1.916  -1.943  1.00  0.00    -0.342 N 
ATOM      4  H   UNL     1       0.101  -2.911  -2.143  1.00  0.00     0.164 HD
ENDROOT
BRANCH   1   5
ATOM      5  CA  LEU A   3       1.901  -1.824  -0.434  1.00  0.00     0.171 C 
BRANCH   5   6
ATOM      6  N   LEU A   3       2.870  -0.809   0.000  1.00  0.00    -0.343 N 
ATOM      7  C   PHE A   2       4.221  -0.767  -0.491  1.00  0.00     0.243 C 
ATOM      8  O   PHE A   2       4.548  -1.470  -1.486  1.00  0.00    -0.273 OA
ATOM      9  H   UNL     1       2.564  -0.142   0.743  1.00  0.00     0.164 HD
BRANCH   7  10
ATOM     10  CA  PHE A   2       5.263   0.146   0.105  1.00  0.00     0.175 C 
BRANCH  10  11
ATOM     11  N   PHE A   2       5.331   1.375  -0.690  1.00  0.00    -0.343 N 
ATOM     12  C   SER A   1       6.505   1.766  -1.426  1.00  0.00     0.239 C 
ATOM     13  O   SER A   1       7.499   0.994  -1.482  1.00  0.00    -0.273 OA
ATOM     14  H   UNL     1       4.487   1.996  -0.697  1.00  0.00     0.164 HD
BRANCH  12  15
ATOM     15  CA  SER A   1       6.570   3.089  -2.159  1.00  0.00     0.167 C 
BRANCH  15  16
ATOM     16  N   SER A   1       5.571   3.164  -3.230  1.00  0.00    -0.318 NA
ATOM     17  H   UNL     1       4.616   2.956  -2.851  1.00  0.00     0.119 HD
ATOM     18  H   UNL     1       5.785   2.420  -3.936  1.00  0.00     0.119 HD
ENDBRANCH  15  16
BRANCH  15  19
ATOM     19  CB  SER A   1       6.452   4.290  -1.200  1.00  0.00     0.184 C 
BRANCH  19  20
ATOM     20  OG  SER A   1       5.151   4.429  -0.695  1.00  0.00    -0.394 OA
ATOM     21  H   UNL     1       4.639   4.972  -1.349  1.00  0.00     0.210 HD
ENDBRANCH  19  20
ENDBRANCH  15  19
ENDBRANCH  12  15
ENDBRANCH  10  11
BRANCH  10  22
ATOM     22  CB  PHE A   2       5.019   0.486   1.590  1.00  0.00     0.070 C 
BRANCH  22  23
ATOM     23  CG  PHE A   2       6.220   1.173   2.190  1.00  0.00    -0.045 A 
ATOM     24  CD1 PHE A   2       7.271   0.412   2.731  1.00  0.00     0.004 A 
ATOM     25  CD2 PHE A   2       6.328   2.574   2.156  1.00  0.00     0.004 A 
ATOM     26  CE1 PHE A   2       8.401   1.047   3.253  1.00  0.00     0.000 A 
ATOM     27  CE2 PHE A   2       7.470   3.203   2.661  1.00  0.00     0.000 A 
ATOM     28  CZ  PHE A   2       8.501   2.440   3.218  1.00  0.00     0.000 A 
ENDBRANCH  22  23
ENDBRANCH  10  22
ENDBRANCH   7  10
ENDBRANCH   5   6
BRANCH   5  29
ATOM     29  CB  LEU A   3       1.455  -2.688   0.765  1.00  0.00     0.038 C 
BRANCH  29  30
ATOM     30  CG  LEU A   3       2.616  -3.419   1.485  1.00  0.00    -0.015 C 
ATOM     31  CD1 LEU A   3       3.271  -4.484   0.589  1.00  0.00     0.007 C 
ATOM     32  CD2 LEU A   3       2.100  -4.073   2.776  1.00  0.00     0.007 C 
ENDBRANCH  29  30
ENDBRANCH   5  29
ENDBRANCH   1   5
BRANCH   3  33
ATOM     33  CA  ASN A   4      -1.371  -1.345  -2.524  1.00  0.00     0.180 C 
BRANCH  33  34
ATOM     34  C   ASN A   4      -2.401  -1.139  -1.448  1.00  0.00     0.243 C 
ATOM     35  N   ARG A   5      -3.228   0.035  -1.461  1.00  0.00    -0.343 N 
ATOM     36  O   ASN A   4      -2.572  -2.025  -0.568  1.00  0.00    -0.273 OA
ATOM     37  H   UNL     1      -3.067   0.754  -2.201  1.00  0.00     0.164 HD
BRANCH  35  38
ATOM     38  CA  ARG A   5      -4.288   0.248  -0.469  1.00  0.00     0.171 C 
BRANCH  38  39
ATOM     39  C   ARG A   5      -5.402  -0.740  -0.700  1.00  0.00     0.243 C 
ATOM     40  N   ALA A   6      -5.960  -1.468   0.405  1.00  0.00    -0.341 N 
ATOM     41  O   ARG A   5      -5.859  -0.901  -1.866  1.00  0.00    -0.273 OA
ATOM     42  H   UNL     1      -5.526  -1.353   1.350  1.00  0.00     0.164 HD
BRANCH  40  43
ATOM     43  CA  ALA A   6      -7.099  -2.379   0.245  1.00  0.00     0.189 C 
ATOM     44  CB  ALA A   6      -7.306  -3.216   1.512  1.00  0.00     0.043 C 
BRANCH  43  45
ATOM     45  C   ALA A   6      -8.342  -1.598  -0.064  1.00  0.00     0.325 C 
ATOM     46  O   ALA A   6      -8.698  -0.653   0.690  1.00  0.00    -0.250 OA
BRANCH  45  47
ATOM     47  OXT ALA A   6      -9.103  -1.921  -1.184  1.00  0.00    -0.480 OA
ATOM     48  H   UNL     1      -9.946  -1.405  -1.409  1.00  0.00     0.296 HD
ENDBRANCH  45  47
ENDBRANCH  43  45
ENDBRANCH  40  43
ENDBRANCH  38  39
BRANCH  38  49
ATOM     49  CB  ARG A   5      -4.808   1.700  -0.546  1.00  0.00     0.037 C 
BRANCH  49  50
ATOM     50  CG  ARG A   5      -5.896   2.049   0.485  1.00  0.00     0.024 C 
BRANCH  50  51
ATOM     51  CD  ARG A   5      -5.377   2.050   1.930  1.00  0.00     0.116 C 
BRANCH  51  52
ATOM     52  NE  ARG A   5      -6.429   2.489   2.847  1.00  0.00    -0.357 N 
ATOM     53  CZ  ARG A   5      -6.818   3.863   2.995  1.00  0.00     0.185 C 
ATOM     54  NH2 ARG A   5      -7.918   4.194   3.848  1.00  0.00    -0.370 N 
ATOM     55  H   UNL     1      -6.900   1.766   3.436  1.00  0.00     0.163 HD
ATOM     56  H   UNL     1      -8.444   3.442   4.351  1.00  0.00     0.159 HD
ATOM     57  H   UNL     1      -8.223   5.189   3.969  1.00  0.00     0.159 HD
BRANCH  53  58
ATOM     58  NH1 ARG A   5      -6.179   4.799   2.363  1.00  0.00    -0.270 NA
ATOM     59  H   UNL     1      -6.450   5.806   2.454  1.00  0.00     0.191 HD
ENDBRANCH  53  58
ENDBRANCH  51  52
ENDBRANCH  50  51
ENDBRANCH  49  50
ENDBRANCH  38  49
ENDBRANCH  35  38
ENDBRANCH  33  34
BRANCH  33  60
ATOM     60  CB  ASN A   4      -1.949  -2.261  -3.621  1.00  0.00     0.134 C 
BRANCH  60  61
ATOM     61  CG  ASN A   4      -1.115  -2.282  -4.875  1.00  0.00     0.220 C 
ATOM     62  ND2 ASN A   4      -1.730  -2.556  -6.134  1.00  0.00    -0.370 N 
ATOM     63  OD1 ASN A   4       0.134  -2.116  -4.820  1.00  0.00    -0.275 OA
ATOM     64  H   UNL     1      -2.752  -2.756  -6.195  1.00  0.00     0.159 HD
ATOM     65  H   UNL     1      -1.156  -2.580  -7.006  1.00  0.00     0.159 HD
ENDBRANCH  60  61
ENDBRANCH  33  60
ENDBRANCH   3  33
TORSDOF 26
