REMARK SMILES CC(C)C[C@H](NC(=O)[C@H](C)NC(=O)[C@H](Cc1ccccc1)NC(=O)[C@@H](N)CO)C(=O)N[C@@H](CCCNC(=N)N)C(=O)N[C@@H](Cc1c[nH]cn1)C(=O)O
REMARK SMILES IDX 7 1 8 2 6 3 9 5 10 6 11 7 12 8 13 9 14 11 22 12 23 13 24 14
REMARK SMILES IDX 25 16 26 17 27 20 28 21 15 23 16 24 17 25 21 26 18 27 20 28
REMARK SMILES IDX 19 29 5 30 29 31 31 32 30 33 32 35 40 36 42 37 41 38 43 40
REMARK SMILES IDX 50 41 51 42 52 43 44 45 45 46 49 47 46 48 48 49 47 50 33 52
REMARK SMILES IDX 34 53 35 54 36 55 37 56 39 57 38 61 4 63 2 64 1 65 3 66
REMARK H PARENT 6 4 11 10 22 15 26 18 26 19 28 22 31 34 42 39 52 44 47 51
REMARK H PARENT 36 58 39 59 39 60 38 62
ROOT
ATOM      1  C   ALA A   3      20.047  10.101  -6.462  1.00  0.00     0.242 C 
ATOM      2  O   ALA A   3      20.175   9.199  -5.587  1.00  0.00    -0.273 OA
ATOM      3  N   LEU A   4      20.561   9.920  -7.773  1.00  0.00    -0.343 N 
ATOM      4  H   UNL     1      20.392  10.655  -8.498  1.00  0.00     0.164 HD
ENDROOT
BRANCH   1   5
ATOM      5  CA  ALA A   3      19.341  11.374  -6.146  1.00  0.00     0.168 C 
ATOM      6  CB  ALA A   3      20.180  12.246  -5.221  1.00  0.00     0.041 C 
BRANCH   5   7
ATOM      7  N   ALA A   3      18.096  11.059  -5.496  1.00  0.00    -0.343 N 
ATOM      8  C   PHE A   2      16.889  11.751  -5.773  1.00  0.00     0.243 C 
ATOM      9  O   PHE A   2      16.899  12.792  -6.487  1.00  0.00    -0.273 OA
ATOM     10  H   UNL     1      18.189  10.557  -4.586  1.00  0.00     0.164 HD
BRANCH   8  11
ATOM     11  CA  PHE A   2      15.654  11.314  -5.059  1.00  0.00     0.175 C 
BRANCH  11  12
ATOM     12  N   PHE A   2      14.456  11.739  -5.767  1.00  0.00    -0.343 N 
ATOM     13  C   SER A   1      13.917  13.048  -5.634  1.00  0.00     0.239 C 
ATOM     14  O   SER A   1      14.447  13.866  -4.833  1.00  0.00    -0.273 OA
ATOM     15  H   UNL     1      13.869  10.998  -6.210  1.00  0.00     0.164 HD
BRANCH  13  16
ATOM     16  CA  SER A   1      12.661  13.409  -6.390  1.00  0.00     0.167 C 
BRANCH  16  17
ATOM     17  N   SER A   1      12.454  14.859  -6.401  1.00  0.00    -0.318 NA
ATOM     18  H   UNL     1      13.315  15.336  -6.757  1.00  0.00     0.119 HD
ATOM     19  H   UNL     1      12.284  15.188  -5.423  1.00  0.00     0.119 HD
ENDBRANCH  16  17
BRANCH  16  20
ATOM     20  CB  SER A   1      12.693  12.886  -7.842  1.00  0.00     0.184 C 
BRANCH  20  21
ATOM     21  OG  SER A   1      11.438  13.058  -8.437  1.00  0.00    -0.394 OA
ATOM     22  H   UNL     1      11.539  12.785  -9.386  1.00  0.00     0.210 HD
ENDBRANCH  20  21
ENDBRANCH  16  20
ENDBRANCH  13  16
ENDBRANCH  11  12
BRANCH  11  23
ATOM     23  CB  PHE A   2      15.620   9.775  -4.890  1.00  0.00     0.070 C 
BRANCH  23  24
ATOM     24  CG  PHE A   2      14.450   9.289  -4.088  1.00  0.00    -0.045 A 
ATOM     25  CD1 PHE A   2      13.906  10.046  -3.033  1.00  0.00     0.004 A 
ATOM     26  CD2 PHE A   2      13.972   7.990  -4.310  1.00  0.00     0.004 A 
ATOM     27  CE1 PHE A   2      12.870   9.536  -2.261  1.00  0.00     0.000 A 
ATOM     28  CE2 PHE A   2      12.941   7.478  -3.522  1.00  0.00     0.000 A 
ATOM     29  CZ  PHE A   2      12.387   8.253  -2.504  1.00  0.00     0.000 A 
ENDBRANCH  23  24
ENDBRANCH  11  23
ENDBRANCH   8  11
ENDBRANCH   5   7
ENDBRANCH   1   5
BRANCH   3  30
ATOM     30  CA  LEU A   4      21.347   8.759  -8.137  1.00  0.00     0.171 C 
BRANCH  30  31
ATOM     31  C   LEU A   4      22.712   9.215  -8.519  1.00  0.00     0.243 C 
ATOM     32  N   ARG A   5      23.822   8.720  -7.783  1.00  0.00    -0.343 N 
ATOM     33  O   LEU A   4      22.876  10.031  -9.467  1.00  0.00    -0.273 OA
ATOM     34  H   UNL     1      23.666   8.031  -7.012  1.00  0.00     0.164 HD
BRANCH  32  35
ATOM     35  CA  ARG A   5      25.185   9.120  -8.071  1.00  0.00     0.171 C 
BRANCH  35  36
ATOM     36  C   ARG A   5      25.898   7.966  -8.686  1.00  0.00     0.243 C 
ATOM     37  N   HIS A   6      25.905   7.866 -10.103  1.00  0.00    -0.341 N 
ATOM     38  O   ARG A   5      26.448   7.084  -7.973  1.00  0.00    -0.273 OA
ATOM     39  H   UNL     1      25.485   8.657 -10.641  1.00  0.00     0.164 HD
BRANCH  37  40
ATOM     40  CA  HIS A   6      26.533   6.762 -10.821  1.00  0.00     0.198 C 
BRANCH  40  41
ATOM     41  C   HIS A   6      27.983   6.644 -10.427  1.00  0.00     0.326 C 
ATOM     42  O   HIS A   6      28.790   7.578 -10.679  1.00  0.00    -0.250 OA
BRANCH  41  43
ATOM     43  OXT HIS A   6      28.432   5.495  -9.782  1.00  0.00    -0.480 OA
ATOM     44  H   UNL     1      29.402   5.398  -9.509  1.00  0.00     0.296 HD
ENDBRANCH  41  43
ENDBRANCH  40  41
BRANCH  40  45
ATOM     45  CB  HIS A   6      26.420   6.992 -12.338  1.00  0.00     0.094 C 
BRANCH  45  46
ATOM     46  CG  HIS A   6      24.993   7.140 -12.786  1.00  0.00     0.061 A 
ATOM     47  ND1 HIS A   6      24.144   6.104 -12.938  1.00  0.00    -0.242 NA
ATOM     48  CD2 HIS A   6      24.357   8.318 -13.113  1.00  0.00     0.107 A 
ATOM     49  CE1 HIS A   6      23.001   6.683 -13.363  1.00  0.00     0.196 A 
ATOM     50  NE2 HIS A   6      23.100   8.021 -13.473  1.00  0.00    -0.351 N 
ATOM     51  H   UNL     1      22.357   8.686 -13.779  1.00  0.00     0.167 HD
ENDBRANCH  45  46
ENDBRANCH  40  45
ENDBRANCH  37  40
ENDBRANCH  35  36
BRANCH  35  52
ATOM     52  CB  ARG A   5      25.863   9.604  -6.795  1.00  0.00     0.037 C 
BRANCH  52  53
ATOM     53  CG  ARG A   5      25.168  10.860  -6.271  1.00  0.00     0.024 C 
BRANCH  53  54
ATOM     54  CD  ARG A   5      25.842  11.391  -5.014  1.00  0.00     0.116 C 
BRANCH  54  55
ATOM     55  NE  ARG A   5      25.378  10.685  -3.823  1.00  0.00    -0.357 N 
ATOM     56  CZ  ARG A   5      25.469  11.279  -2.527  1.00  0.00     0.185 C 
ATOM     57  NH2 ARG A   5      26.106  12.541  -2.349  1.00  0.00    -0.370 N 
ATOM     58  H   UNL     1      24.904   9.757  -3.921  1.00  0.00     0.163 HD
ATOM     59  H   UNL     1      26.693  12.983  -3.090  1.00  0.00     0.159 HD
ATOM     60  H   UNL     1      26.083  13.006  -1.415  1.00  0.00     0.159 HD
BRANCH  56  61
ATOM     61  NH1 ARG A   5      24.959  10.678  -1.499  1.00  0.00    -0.270 NA
ATOM     62  H   UNL     1      24.478   9.755  -1.583  1.00  0.00     0.191 HD
ENDBRANCH  56  61
ENDBRANCH  54  55
ENDBRANCH  53  54
ENDBRANCH  52  53
ENDBRANCH  35  52
ENDBRANCH  32  35
ENDBRANCH  30  31
BRANCH  30  63
ATOM     63  CB  LEU A   4      20.656   7.999  -9.272  1.00  0.00     0.038 C 
BRANCH  63  64
ATOM     64  CG  LEU A   4      21.448   6.770  -9.771  1.00  0.00    -0.015 C 
ATOM     65  CD1 LEU A   4      21.767   5.780  -8.640  1.00  0.00     0.007 C 
ATOM     66  CD2 LEU A   4      20.652   6.064 -10.870  1.00  0.00     0.007 C 
ENDBRANCH  63  64
ENDBRANCH  30  63
ENDBRANCH   3  30
TORSDOF 26
