REMARK SMILES C[C@H](NC(=O)[C@H](Cc1ccccc1)NC(=O)[C@@H](N)CO)C(=O)N[C@H](C(=O)N[C@@H](CCCNC(=N)N)C(=O)N[C@@H](CC(N)=O)C(=O)O)[C@@H](C)O
REMARK SMILES IDX 21 1 22 2 23 3 2 5 1 6 3 7 4 8 5 9 6 11 14 12 15 13 16 14
REMARK SMILES IDX 17 16 18 17 19 20 20 21 7 23 8 24 9 25 13 26 10 27 12 28
REMARK SMILES IDX 11 29 24 30 25 31 27 32 26 33 28 35 36 36 38 37 37 38 39 40
REMARK SMILES IDX 44 41 45 42 46 43 40 45 41 46 42 47 43 48 29 51 30 52 31 53
REMARK SMILES IDX 32 54 33 55 35 56 34 60 47 62 48 63 49 64
REMARK H PARENT 23 4 3 10 14 15 18 18 18 19 20 22 27 34 38 39 46 44 42 49
REMARK H PARENT 42 50 32 57 35 58 35 59 34 61 49 65
ROOT
ATOM      1  C   ALA A   3      20.050  10.096  -6.463  1.00  0.00     0.243 C 
ATOM      2  O   ALA A   3      20.179   9.194  -5.588  1.00  0.00    -0.273 OA
ATOM      3  N   THR A   4      20.563   9.913  -7.773  1.00  0.00    -0.340 N 
ATOM      4  H   UNL     1      20.396  10.651  -8.496  1.00  0.00     0.164 HD
ENDROOT
BRANCH   1   5
ATOM      5  CA  ALA A   3      19.343  11.370  -6.147  1.00  0.00     0.168 C 
ATOM      6  CB  ALA A   3      20.180  12.244  -5.222  1.00  0.00     0.041 C 
BRANCH   5   7
ATOM      7  N   ALA A   3      18.097  11.056  -5.497  1.00  0.00    -0.343 N 
ATOM      8  C   PHE A   2      16.890  11.750  -5.774  1.00  0.00     0.243 C 
ATOM      9  O   PHE A   2      16.901  12.791  -6.487  1.00  0.00    -0.273 OA
ATOM     10  H   UNL     1      18.189  10.553  -4.588  1.00  0.00     0.164 HD
BRANCH   8  11
ATOM     11  CA  PHE A   2      15.655  11.313  -5.059  1.00  0.00     0.175 C 
BRANCH  11  12
ATOM     12  N   PHE A   2      14.457  11.739  -5.769  1.00  0.00    -0.343 N 
ATOM     13  C   SER A   1      13.917  13.048  -5.633  1.00  0.00     0.239 C 
ATOM     14  O   SER A   1      14.448  13.866  -4.831  1.00  0.00    -0.273 OA
ATOM     15  H   UNL     1      13.873  11.000  -6.217  1.00  0.00     0.164 HD
BRANCH  13  16
ATOM     16  CA  SER A   1      12.661  13.412  -6.387  1.00  0.00     0.167 C 
BRANCH  16  17
ATOM     17  N   SER A   1      12.457  14.862  -6.397  1.00  0.00    -0.318 NA
ATOM     18  H   UNL     1      13.318  15.336  -6.758  1.00  0.00     0.119 HD
ATOM     19  H   UNL     1      12.292  15.192  -5.418  1.00  0.00     0.119 HD
ENDBRANCH  16  17
BRANCH  16  20
ATOM     20  CB  SER A   1      12.690  12.888  -7.841  1.00  0.00     0.184 C 
BRANCH  20  21
ATOM     21  OG  SER A   1      11.437  13.050  -8.444  1.00  0.00    -0.394 OA
ATOM     22  H   UNL     1      11.386  13.992  -8.750  1.00  0.00     0.210 HD
ENDBRANCH  20  21
ENDBRANCH  16  20
ENDBRANCH  13  16
ENDBRANCH  11  12
BRANCH  11  23
ATOM     23  CB  PHE A   2      15.620   9.775  -4.891  1.00  0.00     0.070 C 
BRANCH  23  24
ATOM     24  CG  PHE A   2      14.449   9.289  -4.089  1.00  0.00    -0.045 A 
ATOM     25  CD1 PHE A   2      13.906  10.047  -3.033  1.00  0.00     0.004 A 
ATOM     26  CD2 PHE A   2      13.972   7.990  -4.310  1.00  0.00     0.004 A 
ATOM     27  CE1 PHE A   2      12.870   9.536  -2.261  1.00  0.00     0.000 A 
ATOM     28  CE2 PHE A   2      12.941   7.478  -3.522  1.00  0.00     0.000 A 
ATOM     29  CZ  PHE A   2      12.387   8.253  -2.503  1.00  0.00     0.000 A 
ENDBRANCH  23  24
ENDBRANCH  11  23
ENDBRANCH   8  11
ENDBRANCH   5   7
ENDBRANCH   1   5
BRANCH   3  30
ATOM     30  CA  THR A   4      21.339   8.746  -8.150  1.00  0.00     0.200 C 
BRANCH  30  31
ATOM     31  C   THR A   4      22.708   9.207  -8.522  1.00  0.00     0.245 C 
ATOM     32  N   ARG A   5      23.817   8.708  -7.789  1.00  0.00    -0.342 N 
ATOM     33  O   THR A   4      22.874  10.032  -9.462  1.00  0.00    -0.273 OA
ATOM     34  H   UNL     1      23.662   7.981  -7.052  1.00  0.00     0.164 HD
BRANCH  32  35
ATOM     35  CA  ARG A   5      25.181   9.117  -8.072  1.00  0.00     0.171 C 
BRANCH  35  36
ATOM     36  C   ARG A   5      25.900   7.967  -8.686  1.00  0.00     0.243 C 
ATOM     37  N   ASN A   6      25.914   7.865 -10.103  1.00  0.00    -0.341 N 
ATOM     38  O   ARG A   5      26.449   7.087  -7.970  1.00  0.00    -0.273 OA
ATOM     39  H   UNL     1      25.491   8.649 -10.651  1.00  0.00     0.164 HD
BRANCH  37  40
ATOM     40  CA  ASN A   6      26.543   6.751 -10.804  1.00  0.00     0.201 C 
BRANCH  40  41
ATOM     41  C   ASN A   6      27.993   6.642 -10.416  1.00  0.00     0.326 C 
ATOM     42  O   ASN A   6      28.794   7.579 -10.677  1.00  0.00    -0.250 OA
BRANCH  41  43
ATOM     43  OXT ASN A   6      28.452   5.498  -9.770  1.00  0.00    -0.480 OA
ATOM     44  H   UNL     1      29.425   5.408  -9.502  1.00  0.00     0.296 HD
ENDBRANCH  41  43
ENDBRANCH  40  41
BRANCH  40  45
ATOM     45  CB  ASN A   6      26.425   6.947 -12.324  1.00  0.00     0.136 C 
BRANCH  45  46
ATOM     46  CG  ASN A   6      25.010   7.181 -12.773  1.00  0.00     0.220 C 
ATOM     47  ND2 ASN A   6      24.754   8.091 -13.834  1.00  0.00    -0.370 N 
ATOM     48  OD1 ASN A   6      24.053   6.559 -12.243  1.00  0.00    -0.275 OA
ATOM     49  H   UNL     1      23.775   8.258 -14.157  1.00  0.00     0.159 HD
ATOM     50  H   UNL     1      25.533   8.600 -14.307  1.00  0.00     0.159 HD
ENDBRANCH  45  46
ENDBRANCH  40  45
ENDBRANCH  37  40
ENDBRANCH  35  36
BRANCH  35  51
ATOM     51  CB  ARG A   5      25.856   9.600  -6.793  1.00  0.00     0.037 C 
BRANCH  51  52
ATOM     52  CG  ARG A   5      25.164  10.858  -6.270  1.00  0.00     0.024 C 
BRANCH  52  53
ATOM     53  CD  ARG A   5      25.840  11.389  -5.014  1.00  0.00     0.116 C 
BRANCH  53  54
ATOM     54  NE  ARG A   5      25.377  10.686  -3.820  1.00  0.00    -0.357 N 
ATOM     55  CZ  ARG A   5      25.470  11.282  -2.527  1.00  0.00     0.185 C 
ATOM     56  NH2 ARG A   5      26.109  12.546  -2.352  1.00  0.00    -0.370 N 
ATOM     57  H   UNL     1      24.897   9.762  -3.911  1.00  0.00     0.163 HD
ATOM     58  H   UNL     1      26.084  13.022  -1.423  1.00  0.00     0.159 HD
ATOM     59  H   UNL     1      26.699  12.981  -3.094  1.00  0.00     0.159 HD
BRANCH  55  60
ATOM     60  NH1 ARG A   5      24.956  10.671  -1.506  1.00  0.00    -0.270 NA
ATOM     61  H   UNL     1      24.999  11.075  -0.544  1.00  0.00     0.191 HD
ENDBRANCH  55  60
ENDBRANCH  53  54
ENDBRANCH  52  53
ENDBRANCH  51  52
ENDBRANCH  35  51
ENDBRANCH  32  35
ENDBRANCH  30  31
BRANCH  30  62
ATOM     62  CB  THR A   4      20.648   8.003  -9.305  1.00  0.00     0.143 C 
ATOM     63  CG2 THR A   4      21.443   6.773  -9.748  1.00  0.00     0.041 C 
BRANCH  62  64
ATOM     64  OG1 THR A   4      19.369   7.583  -8.902  1.00  0.00    -0.391 OA
ATOM     65  H   UNL     1      18.757   8.355  -9.021  1.00  0.00     0.211 HD
ENDBRANCH  62  64
ENDBRANCH  30  62
ENDBRANCH   3  30
TORSDOF 26
