REMARK SMILES CC(C)C[C@H](NC(=O)[C@@H]1CCCN1C(=O)[C@@H](N)CO)C(=O)NCC(=O)N[C@@H](CCCNC(=N)N)C(=O)N[C@@H](CC(N)=O)C(=O)O
REMARK SMILES IDX 20 1 21 2 22 3 5 5 6 6 7 7 8 8 9 10 13 11 12 12 10 13 11 14
REMARK SMILES IDX 14 15 15 16 16 17 17 18 18 21 19 22 4 24 2 25 1 26 3 27
REMARK SMILES IDX 23 28 24 29 26 30 25 31 27 33 35 34 37 35 36 36 38 38 43 39
REMARK SMILES IDX 44 40 45 41 39 43 40 44 41 45 42 46 28 49 29 50 30 51 31 52
REMARK SMILES IDX 32 53 34 54 33 58
REMARK H PARENT 22 4 6 9 17 19 17 20 19 23 26 32 37 37 45 42 41 47 41 48 31 55
REMARK H PARENT 34 56 34 57 33 59
ROOT
ATOM      1  C   LEU A   3      20.041  10.062  -6.473  1.00  0.00     0.243 C 
ATOM      2  O   LEU A   3      20.178   9.137  -5.627  1.00  0.00    -0.273 OA
ATOM      3  N   GLY A   4      20.561   9.917  -7.785  1.00  0.00    -0.345 N 
ATOM      4  H   UNL     1      20.401  10.673  -8.490  1.00  0.00     0.164 HD
ENDROOT
BRANCH   1   5
ATOM      5  CA  LEU A   3      19.300  11.316  -6.128  1.00  0.00     0.171 C 
BRANCH   5   6
ATOM      6  N   LEU A   3      18.014  10.976  -5.541  1.00  0.00    -0.343 N 
ATOM      7  C   PRO A   2      16.861  11.792  -5.718  1.00  0.00     0.243 C 
ATOM      8  O   PRO A   2      16.931  12.812  -6.459  1.00  0.00    -0.273 OA
ATOM      9  H   UNL     1      17.951  10.114  -4.963  1.00  0.00     0.164 HD
BRANCH   7  10
ATOM     10  CA  PRO A   2      15.537  11.385  -5.103  1.00  0.00     0.174 C 
ATOM     11  N   PRO A   2      15.668  10.901  -3.725  1.00  0.00    -0.329 N 
ATOM     12  CD  PRO A   2      14.880  11.683  -2.788  1.00  0.00     0.120 C 
ATOM     13  CB  PRO A   2      14.558  12.572  -5.011  1.00  0.00     0.037 C 
ATOM     14  CG  PRO A   2      13.906  12.475  -3.639  1.00  0.00     0.024 C 
BRANCH  11  15
ATOM     15  C   SER A   1      16.119   9.591  -3.336  1.00  0.00     0.242 C 
ATOM     16  O   SER A   1      17.047   9.496  -2.489  1.00  0.00    -0.273 OA
BRANCH  15  17
ATOM     17  CA  SER A   1      15.478   8.325  -3.853  1.00  0.00     0.167 C 
BRANCH  17  18
ATOM     18  N   SER A   1      14.032   8.506  -4.014  1.00  0.00    -0.318 NA
ATOM     19  H   UNL     1      13.820   8.940  -4.940  1.00  0.00     0.119 HD
ATOM     20  H   UNL     1      13.575   7.565  -4.012  1.00  0.00     0.119 HD
ENDBRANCH  17  18
BRANCH  17  21
ATOM     21  CB  SER A   1      16.156   7.831  -5.145  1.00  0.00     0.184 C 
BRANCH  21  22
ATOM     22  OG  SER A   1      15.651   6.576  -5.516  1.00  0.00    -0.394 OA
ATOM     23  H   UNL     1      14.835   6.743  -6.057  1.00  0.00     0.210 HD
ENDBRANCH  21  22
ENDBRANCH  17  21
ENDBRANCH  15  17
ENDBRANCH  11  15
ENDBRANCH   7  10
ENDBRANCH   5   6
BRANCH   5  24
ATOM     24  CB  LEU A   3      20.124  12.232  -5.210  1.00  0.00     0.038 C 
BRANCH  24  25
ATOM     25  CG  LEU A   3      20.399  11.665  -3.791  1.00  0.00    -0.015 C 
ATOM     26  CD1 LEU A   3      21.802  12.066  -3.324  1.00  0.00     0.007 C 
ATOM     27  CD2 LEU A   3      19.350  12.146  -2.783  1.00  0.00     0.007 C 
ENDBRANCH  24  25
ENDBRANCH   5  24
ENDBRANCH   1   5
BRANCH   3  28
ATOM     28  CA  GLY A   4      21.331   8.760  -8.200  1.00  0.00     0.216 C 
BRANCH  28  29
ATOM     29  C   GLY A   4      22.705   9.206  -8.538  1.00  0.00     0.240 C 
ATOM     30  N   ARG A   5      23.805   8.709  -7.788  1.00  0.00    -0.343 N 
ATOM     31  O   GLY A   4      22.884  10.032  -9.474  1.00  0.00    -0.273 OA
ATOM     32  H   UNL     1      23.639   7.993  -7.045  1.00  0.00     0.164 HD
BRANCH  30  33
ATOM     33  CA  ARG A   5      25.174   9.114  -8.068  1.00  0.00     0.171 C 
BRANCH  33  34
ATOM     34  C   ARG A   5      25.896   7.965  -8.683  1.00  0.00     0.243 C 
ATOM     35  N   ASN A   6      25.914   7.866 -10.101  1.00  0.00    -0.341 N 
ATOM     36  O   ARG A   5      26.447   7.086  -7.969  1.00  0.00    -0.273 OA
ATOM     37  H   UNL     1      25.495   8.652 -10.649  1.00  0.00     0.164 HD
BRANCH  35  38
ATOM     38  CA  ASN A   6      26.543   6.752 -10.803  1.00  0.00     0.201 C 
BRANCH  38  39
ATOM     39  C   ASN A   6      27.993   6.642 -10.416  1.00  0.00     0.326 C 
ATOM     40  O   ASN A   6      28.795   7.579 -10.677  1.00  0.00    -0.250 OA
BRANCH  39  41
ATOM     41  OXT ASN A   6      28.452   5.499  -9.769  1.00  0.00    -0.480 OA
ATOM     42  H   UNL     1      29.425   5.409  -9.501  1.00  0.00     0.296 HD
ENDBRANCH  39  41
ENDBRANCH  38  39
BRANCH  38  43
ATOM     43  CB  ASN A   6      26.424   6.947 -12.323  1.00  0.00     0.136 C 
BRANCH  43  44
ATOM     44  CG  ASN A   6      25.010   7.182 -12.772  1.00  0.00     0.220 C 
ATOM     45  ND2 ASN A   6      24.754   8.089 -13.834  1.00  0.00    -0.370 N 
ATOM     46  OD1 ASN A   6      24.051   6.563 -12.238  1.00  0.00    -0.275 OA
ATOM     47  H   UNL     1      23.775   8.257 -14.157  1.00  0.00     0.159 HD
ATOM     48  H   UNL     1      25.534   8.596 -14.309  1.00  0.00     0.159 HD
ENDBRANCH  43  44
ENDBRANCH  38  43
ENDBRANCH  35  38
ENDBRANCH  33  34
BRANCH  33  49
ATOM     49  CB  ARG A   5      25.851   9.597  -6.790  1.00  0.00     0.037 C 
BRANCH  49  50
ATOM     50  CG  ARG A   5      25.162  10.858  -6.269  1.00  0.00     0.024 C 
BRANCH  50  51
ATOM     51  CD  ARG A   5      25.838  11.390  -5.014  1.00  0.00     0.116 C 
BRANCH  51  52
ATOM     52  NE  ARG A   5      25.377  10.686  -3.820  1.00  0.00    -0.357 N 
ATOM     53  CZ  ARG A   5      25.469  11.282  -2.526  1.00  0.00     0.185 C 
ATOM     54  NH2 ARG A   5      26.108  12.546  -2.352  1.00  0.00    -0.370 N 
ATOM     55  H   UNL     1      24.892   9.764  -3.911  1.00  0.00     0.163 HD
ATOM     56  H   UNL     1      26.697  12.982  -3.094  1.00  0.00     0.159 HD
ATOM     57  H   UNL     1      26.080  13.024  -1.424  1.00  0.00     0.159 HD
BRANCH  53  58
ATOM     58  NH1 ARG A   5      24.954  10.672  -1.506  1.00  0.00    -0.270 NA
ATOM     59  H   UNL     1      24.996  11.077  -0.545  1.00  0.00     0.191 HD
ENDBRANCH  53  58
ENDBRANCH  51  52
ENDBRANCH  50  51
ENDBRANCH  49  50
ENDBRANCH  33  49
ENDBRANCH  30  33
ENDBRANCH  28  29
ENDBRANCH   3  28
TORSDOF 24
