REMARK SMILES N=C(N)NCCC[C@H](NC(=O)CNC(=O)[C@H](CCC(N)=O)NC(=O)[C@H](Cc1ccccc1)NC(=O)[C@@H](N)CO)C(=O)N[C@@H](CC(N)=O)C(=O)O
REMARK SMILES IDX 14 1 15 2 13 3 16 5 22 6 23 7 24 8 25 10 33 11 34 12 35 13
REMARK SMILES IDX 36 15 37 16 38 19 39 20 26 22 27 23 28 24 32 25 29 26 31 27
REMARK SMILES IDX 30 28 17 29 18 30 19 31 20 32 21 33 12 36 10 37 9 38 11 39
REMARK SMILES IDX 8 41 40 42 42 43 41 44 43 46 48 47 49 48 50 49 44 51 45 52
REMARK SMILES IDX 46 53 47 54 7 57 6 58 5 59 4 60 2 61 3 62 1 66
REMARK H PARENT 13 4 22 9 33 14 37 17 37 18 39 21 20 34 20 35 9 40 42 45 50 50
REMARK H PARENT 46 55 46 56 4 63 3 64 3 65 1 67
ROOT
ATOM      1  C   GLN A   3       0.280  -0.605  -0.870  1.00  0.00     0.243 C 
ATOM      2  O   GLN A   3      -0.081  -0.683  -2.075  1.00  0.00    -0.273 OA
ATOM      3  N   GLY A   4      -0.177  -1.578   0.083  1.00  0.00    -0.345 N 
ATOM      4  H   UNL     1       0.224  -1.577   1.047  1.00  0.00     0.164 HD
ENDROOT
BRANCH   1   5
ATOM      5  CA  GLN A   3       1.226   0.485  -0.443  1.00  0.00     0.171 C 
BRANCH   5   6
ATOM      6  N   GLN A   3       2.545   0.239  -1.033  1.00  0.00    -0.342 N 
ATOM      7  C   PHE A   2       3.547  -0.544  -0.368  1.00  0.00     0.243 C 
ATOM      8  O   PHE A   2       3.272  -1.143   0.708  1.00  0.00    -0.273 OA
ATOM      9  H   UNL     1       2.733   0.578  -2.006  1.00  0.00     0.164 HD
BRANCH   7  10
ATOM     10  CA  PHE A   2       4.928  -0.662  -0.951  1.00  0.00     0.175 C 
BRANCH  10  11
ATOM     11  N   PHE A   2       5.917  -0.315   0.073  1.00  0.00    -0.343 N 
ATOM     12  C   SER A   1       6.446   1.014   0.216  1.00  0.00     0.239 C 
ATOM     13  O   SER A   1       6.135   1.912  -0.612  1.00  0.00    -0.273 OA
ATOM     14  H   UNL     1       6.129  -1.018   0.817  1.00  0.00     0.164 HD
BRANCH  12  15
ATOM     15  CA  SER A   1       7.324   1.352   1.388  1.00  0.00     0.167 C 
BRANCH  15  16
ATOM     16  N   SER A   1       8.398   2.257   0.968  1.00  0.00    -0.318 NA
ATOM     17  H   UNL     1       8.003   3.210   0.782  1.00  0.00     0.119 HD
ATOM     18  H   UNL     1       9.082   2.349   1.755  1.00  0.00     0.119 HD
ENDBRANCH  15  16
BRANCH  15  19
ATOM     19  CB  SER A   1       6.476   1.964   2.517  1.00  0.00     0.184 C 
BRANCH  19  20
ATOM     20  OG  SER A   1       7.263   2.226   3.648  1.00  0.00    -0.394 OA
ATOM     21  H   UNL     1       7.461   1.348   4.068  1.00  0.00     0.210 HD
ENDBRANCH  19  20
ENDBRANCH  15  19
ENDBRANCH  12  15
ENDBRANCH  10  11
BRANCH  10  22
ATOM     22  CB  PHE A   2       5.170  -2.086  -1.478  1.00  0.00     0.070 C 
BRANCH  22  23
ATOM     23  CG  PHE A   2       6.528  -2.199  -2.123  1.00  0.00    -0.045 A 
ATOM     24  CD1 PHE A   2       6.737  -1.703  -3.421  1.00  0.00     0.004 A 
ATOM     25  CD2 PHE A   2       7.613  -2.742  -1.414  1.00  0.00     0.004 A 
ATOM     26  CE1 PHE A   2       8.008  -1.759  -4.003  1.00  0.00     0.000 A 
ATOM     27  CE2 PHE A   2       8.882  -2.798  -1.999  1.00  0.00     0.000 A 
ATOM     28  CZ  PHE A   2       9.081  -2.304  -3.292  1.00  0.00     0.000 A 
ENDBRANCH  22  23
ENDBRANCH  10  22
ENDBRANCH   7  10
ENDBRANCH   5   6
BRANCH   5  29
ATOM     29  CB  GLN A   3       0.686   1.871  -0.860  1.00  0.00     0.045 C 
BRANCH  29  30
ATOM     30  CG  GLN A   3       1.604   3.029  -0.435  1.00  0.00     0.102 C 
BRANCH  30  31
ATOM     31  CD  GLN A   3       1.680   3.165   1.057  1.00  0.00     0.217 C 
ATOM     32  NE2 GLN A   3       2.796   2.636   1.778  1.00  0.00    -0.370 N 
ATOM     33  OE1 GLN A   3       0.735   3.715   1.683  1.00  0.00    -0.275 OA
ATOM     34  H   UNL     1       2.844   2.739   2.815  1.00  0.00     0.159 HD
ATOM     35  H   UNL     1       3.571   2.141   1.281  1.00  0.00     0.159 HD
ENDBRANCH  30  31
ENDBRANCH  29  30
ENDBRANCH   5  29
ENDBRANCH   1   5
BRANCH   3  36
ATOM     36  CA  GLY A   4      -1.172  -2.594  -0.253  1.00  0.00     0.216 C 
BRANCH  36  37
ATOM     37  C   GLY A   4      -2.533  -1.973  -0.338  1.00  0.00     0.240 C 
ATOM     38  N   ARG A   5      -3.110  -1.353   0.822  1.00  0.00    -0.343 N 
ATOM     39  O   GLY A   4      -3.157  -1.985  -1.433  1.00  0.00    -0.273 OA
ATOM     40  H   UNL     1      -2.532  -1.298   1.691  1.00  0.00     0.164 HD
BRANCH  38  41
ATOM     41  CA  ARG A   5      -4.506  -0.908   0.850  1.00  0.00     0.171 C 
BRANCH  41  42
ATOM     42  C   ARG A   5      -4.683   0.298  -0.037  1.00  0.00     0.243 C 
ATOM     43  N   ASN A   6      -5.836   0.392  -0.895  1.00  0.00    -0.341 N 
ATOM     44  O   ARG A   5      -3.837   1.233   0.009  1.00  0.00    -0.273 OA
ATOM     45  H   UNL     1      -6.490  -0.424  -0.929  1.00  0.00     0.164 HD
BRANCH  43  46
ATOM     46  CA  ASN A   6      -6.240   1.602  -1.626  1.00  0.00     0.201 C 
BRANCH  46  47
ATOM     47  C   ASN A   6      -5.331   1.869  -2.797  1.00  0.00     0.326 C 
ATOM     48  O   ASN A   6      -4.134   1.471  -2.796  1.00  0.00    -0.250 OA
BRANCH  47  49
ATOM     49  OXT ASN A   6      -5.812   2.602  -3.879  1.00  0.00    -0.480 OA
ATOM     50  H   UNL     1      -5.221   2.795  -4.680  1.00  0.00     0.296 HD
ENDBRANCH  47  49
ENDBRANCH  46  47
BRANCH  46  51
ATOM     51  CB  ASN A   6      -6.337   2.820  -0.687  1.00  0.00     0.136 C 
BRANCH  51  52
ATOM     52  CG  ASN A   6      -7.211   3.895  -1.269  1.00  0.00     0.220 C 
ATOM     53  ND2 ASN A   6      -8.632   3.764  -1.236  1.00  0.00    -0.370 N 
ATOM     54  OD1 ASN A   6      -6.691   4.910  -1.802  1.00  0.00    -0.275 OA
ATOM     55  H   UNL     1      -9.243   4.523  -1.615  1.00  0.00     0.159 HD
ATOM     56  H   UNL     1      -9.077   2.905  -0.844  1.00  0.00     0.159 HD
ENDBRANCH  51  52
ENDBRANCH  46  51
ENDBRANCH  43  46
ENDBRANCH  41  42
BRANCH  41  57
ATOM     57  CB  ARG A   5      -4.932  -0.586   2.298  1.00  0.00     0.037 C 
BRANCH  57  58
ATOM     58  CG  ARG A   5      -6.443  -0.331   2.471  1.00  0.00     0.024 C 
BRANCH  58  59
ATOM     59  CD  ARG A   5      -7.328  -1.555   2.182  1.00  0.00     0.116 C 
BRANCH  59  60
ATOM     60  NE  ARG A   5      -6.905  -2.711   2.977  1.00  0.00    -0.357 N 
ATOM     61  CZ  ARG A   5      -6.205  -3.842   2.426  1.00  0.00     0.185 C 
ATOM     62  NH2 ARG A   5      -5.181  -4.477   3.193  1.00  0.00    -0.370 N 
ATOM     63  H   UNL     1      -6.904  -2.598   4.016  1.00  0.00     0.163 HD
ATOM     64  H   UNL     1      -4.636  -5.276   2.794  1.00  0.00     0.159 HD
ATOM     65  H   UNL     1      -4.931  -4.118   4.142  1.00  0.00     0.159 HD
BRANCH  61  66
ATOM     66  NH1 ARG A   5      -6.516  -4.328   1.264  1.00  0.00    -0.270 NA
ATOM     67  H   UNL     1      -7.282  -3.943   0.670  1.00  0.00     0.191 HD
ENDBRANCH  61  66
ENDBRANCH  59  60
ENDBRANCH  58  59
ENDBRANCH  57  58
ENDBRANCH  41  57
ENDBRANCH  38  41
ENDBRANCH  36  37
ENDBRANCH   3  36
TORSDOF 27
