REMARK SMILES CC(C)C[C@H](NC(=O)[C@H](C)NC(=O)[C@H](Cc1ccccc1)NC(=O)[C@@H](N)Cc1c[nH]cn1)C(=O)N[C@@H](CCCNC(=N)N)C(=O)N[C@@H](CC(N)=O)C(=O)O
REMARK SMILES IDX 7 1 8 2 6 3 9 5 10 6 11 7 12 8 13 9 14 11 22 12 23 13 24 14
REMARK SMILES IDX 25 16 26 17 27 20 28 21 32 22 29 23 31 24 30 25 15 27 16 28
REMARK SMILES IDX 17 29 21 30 18 31 20 32 19 33 5 34 33 35 35 36 34 37 36 39
REMARK SMILES IDX 44 40 46 41 45 42 47 44 52 45 53 46 54 47 48 49 49 50 50 51
REMARK SMILES IDX 51 52 37 55 38 56 39 57 40 58 41 59 43 60 42 64 4 66 2 67
REMARK SMILES IDX 1 68 3 69
REMARK H PARENT 6 4 11 10 22 15 26 18 26 19 30 26 35 38 46 43 54 48 50 53
REMARK H PARENT 50 54 40 61 43 62 43 63 42 65
ROOT
ATOM      1  C   ALA A   3      20.047  10.101  -6.461  1.00  0.00     0.242 C 
ATOM      2  O   ALA A   3      20.175   9.199  -5.586  1.00  0.00    -0.273 OA
ATOM      3  N   LEU A   4      20.560   9.920  -7.772  1.00  0.00    -0.343 N 
ATOM      4  H   UNL     1      20.391  10.655  -8.497  1.00  0.00     0.164 HD
ENDROOT
BRANCH   1   5
ATOM      5  CA  ALA A   3      19.342  11.374  -6.145  1.00  0.00     0.168 C 
ATOM      6  CB  ALA A   3      20.180  12.246  -5.220  1.00  0.00     0.041 C 
BRANCH   5   7
ATOM      7  N   ALA A   3      18.096  11.058  -5.494  1.00  0.00    -0.343 N 
ATOM      8  C   PHE A   2      16.891  11.753  -5.773  1.00  0.00     0.243 C 
ATOM      9  O   PHE A   2      16.905  12.793  -6.487  1.00  0.00    -0.273 OA
ATOM     10  H   UNL     1      18.187  10.554  -4.585  1.00  0.00     0.164 HD
BRANCH   8  11
ATOM     11  CA  PHE A   2      15.652  11.318  -5.066  1.00  0.00     0.175 C 
BRANCH  11  12
ATOM     12  N   PHE A   2      14.466  11.750  -5.789  1.00  0.00    -0.343 N 
ATOM     13  C   HIS A   1      13.907  13.049  -5.627  1.00  0.00     0.237 C 
ATOM     14  O   HIS A   1      14.439  13.861  -4.821  1.00  0.00    -0.273 OA
ATOM     15  H   UNL     1      13.998  11.060  -6.412  1.00  0.00     0.164 HD
BRANCH  13  16
ATOM     16  CA  HIS A   1      12.649  13.421  -6.375  1.00  0.00     0.147 C 
BRANCH  16  17
ATOM     17  N   HIS A   1      12.488  14.876  -6.388  1.00  0.00    -0.320 NA
ATOM     18  H   UNL     1      12.369  15.208  -5.403  1.00  0.00     0.119 HD
ATOM     19  H   UNL     1      11.583  15.106  -6.860  1.00  0.00     0.119 HD
ENDBRANCH  16  17
BRANCH  16  20
ATOM     20  CB  HIS A   1      12.674  12.889  -7.835  1.00  0.00     0.086 C 
BRANCH  20  21
ATOM     21  CG  HIS A   1      12.019  11.544  -7.982  1.00  0.00     0.060 A 
ATOM     22  ND1 HIS A   1      10.782  11.248  -7.532  1.00  0.00    -0.242 NA
ATOM     23  CD2 HIS A   1      12.541  10.462  -8.657  1.00  0.00     0.107 A 
ATOM     24  CE1 HIS A   1      10.590   9.972  -7.927  1.00  0.00     0.196 A 
ATOM     25  NE2 HIS A   1      11.637   9.472  -8.609  1.00  0.00    -0.351 N 
ATOM     26  H   UNL     1      11.725   8.517  -9.022  1.00  0.00     0.167 HD
ENDBRANCH  20  21
ENDBRANCH  16  20
ENDBRANCH  13  16
ENDBRANCH  11  12
BRANCH  11  27
ATOM     27  CB  PHE A   2      15.611   9.779  -4.900  1.00  0.00     0.070 C 
BRANCH  27  28
ATOM     28  CG  PHE A   2      14.444   9.293  -4.095  1.00  0.00    -0.045 A 
ATOM     29  CD1 PHE A   2      13.904  10.049  -3.036  1.00  0.00     0.004 A 
ATOM     30  CD2 PHE A   2      13.969   7.992  -4.313  1.00  0.00     0.004 A 
ATOM     31  CE1 PHE A   2      12.871   9.537  -2.262  1.00  0.00     0.000 A 
ATOM     32  CE2 PHE A   2      12.941   7.479  -3.523  1.00  0.00     0.000 A 
ATOM     33  CZ  PHE A   2      12.388   8.254  -2.503  1.00  0.00     0.000 A 
ENDBRANCH  27  28
ENDBRANCH  11  27
ENDBRANCH   8  11
ENDBRANCH   5   7
ENDBRANCH   1   5
BRANCH   3  34
ATOM     34  CA  LEU A   4      21.346   8.759  -8.136  1.00  0.00     0.171 C 
BRANCH  34  35
ATOM     35  C   LEU A   4      22.712   9.216  -8.518  1.00  0.00     0.243 C 
ATOM     36  N   ARG A   5      23.822   8.720  -7.784  1.00  0.00    -0.343 N 
ATOM     37  O   LEU A   4      22.875  10.032  -9.466  1.00  0.00    -0.273 OA
ATOM     38  H   UNL     1      23.667   8.029  -7.015  1.00  0.00     0.164 HD
BRANCH  36  39
ATOM     39  CA  ARG A   5      25.185   9.122  -8.073  1.00  0.00     0.171 C 
BRANCH  39  40
ATOM     40  C   ARG A   5      25.899   7.968  -8.685  1.00  0.00     0.243 C 
ATOM     41  N   ASN A   6      25.913   7.864 -10.102  1.00  0.00    -0.341 N 
ATOM     42  O   ARG A   5      26.447   7.087  -7.969  1.00  0.00    -0.273 OA
ATOM     43  H   UNL     1      25.489   8.647 -10.651  1.00  0.00     0.164 HD
BRANCH  41  44
ATOM     44  CA  ASN A   6      26.542   6.751 -10.804  1.00  0.00     0.201 C 
BRANCH  44  45
ATOM     45  C   ASN A   6      27.993   6.642 -10.416  1.00  0.00     0.326 C 
ATOM     46  O   ASN A   6      28.794   7.579 -10.677  1.00  0.00    -0.250 OA
BRANCH  45  47
ATOM     47  OXT ASN A   6      28.451   5.499  -9.768  1.00  0.00    -0.480 OA
ATOM     48  H   UNL     1      29.424   5.409  -9.499  1.00  0.00     0.296 HD
ENDBRANCH  45  47
ENDBRANCH  44  45
BRANCH  44  49
ATOM     49  CB  ASN A   6      26.424   6.947 -12.323  1.00  0.00     0.136 C 
BRANCH  49  50
ATOM     50  CG  ASN A   6      25.010   7.180 -12.773  1.00  0.00     0.220 C 
ATOM     51  ND2 ASN A   6      24.753   8.090 -13.833  1.00  0.00    -0.370 N 
ATOM     52  OD1 ASN A   6      24.053   6.558 -12.243  1.00  0.00    -0.275 OA
ATOM     53  H   UNL     1      23.774   8.258 -14.156  1.00  0.00     0.159 HD
ATOM     54  H   UNL     1      25.533   8.600 -14.306  1.00  0.00     0.159 HD
ENDBRANCH  49  50
ENDBRANCH  44  49
ENDBRANCH  41  44
ENDBRANCH  39  40
BRANCH  39  55
ATOM     55  CB  ARG A   5      25.863   9.605  -6.796  1.00  0.00     0.037 C 
BRANCH  55  56
ATOM     56  CG  ARG A   5      25.166  10.859  -6.270  1.00  0.00     0.024 C 
BRANCH  56  57
ATOM     57  CD  ARG A   5      25.842  11.390  -5.014  1.00  0.00     0.116 C 
BRANCH  57  58
ATOM     58  NE  ARG A   5      25.378  10.687  -3.820  1.00  0.00    -0.357 N 
ATOM     59  CZ  ARG A   5      25.470  11.282  -2.526  1.00  0.00     0.185 C 
ATOM     60  NH2 ARG A   5      26.109  12.546  -2.351  1.00  0.00    -0.370 N 
ATOM     61  H   UNL     1      24.899   9.761  -3.912  1.00  0.00     0.163 HD
ATOM     62  H   UNL     1      26.084  13.022  -1.422  1.00  0.00     0.159 HD
ATOM     63  H   UNL     1      26.699  12.981  -3.092  1.00  0.00     0.159 HD
BRANCH  59  64
ATOM     64  NH1 ARG A   5      24.956  10.671  -1.506  1.00  0.00    -0.270 NA
ATOM     65  H   UNL     1      24.999  11.075  -0.544  1.00  0.00     0.191 HD
ENDBRANCH  59  64
ENDBRANCH  57  58
ENDBRANCH  56  57
ENDBRANCH  55  56
ENDBRANCH  39  55
ENDBRANCH  36  39
ENDBRANCH  34  35
BRANCH  34  66
ATOM     66  CB  LEU A   4      20.654   7.998  -9.270  1.00  0.00     0.038 C 
BRANCH  66  67
ATOM     67  CG  LEU A   4      21.448   6.771  -9.768  1.00  0.00    -0.015 C 
ATOM     68  CD1 LEU A   4      21.762   5.778  -8.639  1.00  0.00     0.007 C 
ATOM     69  CD2 LEU A   4      20.662   6.067 -10.877  1.00  0.00     0.007 C 
ENDBRANCH  66  67
ENDBRANCH  34  66
ENDBRANCH   3  34
TORSDOF 26
