REMARK SMILES CC(C)C[C@H](NC(=O)[C@H](Cc1c[nH]cn1)NC(=O)[C@H](Cc1ccccc1)NC(=O)[C@@H](N)CO)C(=O)N[C@@H](CCC(N)=O)C(=O)N[C@@H](CC(N)=O)C(=O)O
REMARK SMILES IDX 7 1 8 2 6 3 9 5 16 6 17 7 18 8 19 10 27 11 28 12 29 13 30 15
REMARK SMILES IDX 31 16 32 19 33 20 20 22 21 23 22 24 26 25 23 26 25 27 24 28
REMARK SMILES IDX 10 29 11 30 15 31 12 32 14 33 13 34 5 36 34 37 36 38 35 39
REMARK SMILES IDX 37 41 43 42 45 43 44 44 46 46 51 47 52 48 53 49 47 51 48 52
REMARK SMILES IDX 49 53 50 54 38 57 39 58 40 59 41 60 42 61 4 64 2 65 1 66
REMARK SMILES IDX 3 67
REMARK H PARENT 6 4 16 9 27 14 31 17 31 18 33 21 13 35 36 40 45 45 53 50 49 55
REMARK H PARENT 49 56 41 62 41 63
ROOT
ATOM      1  C   HIS A   3      -0.590   0.263  -0.822  1.00  0.00     0.243 C 
ATOM      2  O   HIS A   3      -0.771   0.618  -2.020  1.00  0.00    -0.273 OA
ATOM      3  N   LEU A   4       0.561   0.725  -0.099  1.00  0.00    -0.342 N 
ATOM      4  H   UNL     1       0.568   0.600   0.938  1.00  0.00     0.164 HD
ENDROOT
BRANCH   1   5
ATOM      5  CA  HIS A   3      -1.599  -0.630  -0.150  1.00  0.00     0.177 C 
BRANCH   5   6
ATOM      6  N   HIS A   3      -2.862   0.095   0.026  1.00  0.00    -0.342 N 
ATOM      7  C   PHE A   2      -3.671  -0.065   1.206  1.00  0.00     0.243 C 
ATOM      8  O   PHE A   2      -3.135  -0.439   2.281  1.00  0.00    -0.273 OA
ATOM      9  H   UNL     1      -3.263   0.592  -0.802  1.00  0.00     0.164 HD
BRANCH   7  10
ATOM     10  CA  PHE A   2      -5.142   0.285   1.192  1.00  0.00     0.175 C 
BRANCH  10  11
ATOM     11  N   PHE A   2      -5.676   0.179  -0.171  1.00  0.00    -0.343 N 
ATOM     12  C   SER A   1      -6.496   1.195  -0.769  1.00  0.00     0.239 C 
ATOM     13  O   SER A   1      -6.652   2.307  -0.195  1.00  0.00    -0.273 OA
ATOM     14  H   UNL     1      -5.550  -0.724  -0.680  1.00  0.00     0.164 HD
BRANCH  12  15
ATOM     15  CA  SER A   1      -7.136   0.949  -2.114  1.00  0.00     0.167 C 
BRANCH  15  16
ATOM     16  N   SER A   1      -8.550   1.333  -2.103  1.00  0.00    -0.318 NA
ATOM     17  H   UNL     1      -8.640   2.347  -1.855  1.00  0.00     0.119 HD
ATOM     18  H   UNL     1      -9.038   0.783  -1.357  1.00  0.00     0.119 HD
ENDBRANCH  15  16
BRANCH  15  19
ATOM     19  CB  SER A   1      -6.379   1.713  -3.208  1.00  0.00     0.184 C 
BRANCH  19  20
ATOM     20  OG  SER A   1      -6.879   1.382  -4.476  1.00  0.00    -0.394 OA
ATOM     21  H   UNL     1      -7.684   1.941  -4.627  1.00  0.00     0.210 HD
ENDBRANCH  19  20
ENDBRANCH  15  19
ENDBRANCH  12  15
ENDBRANCH  10  11
BRANCH  10  22
ATOM     22  CB  PHE A   2      -5.938  -0.646   2.131  1.00  0.00     0.070 C 
BRANCH  22  23
ATOM     23  CG  PHE A   2      -7.415  -0.359   2.079  1.00  0.00    -0.045 A 
ATOM     24  CD1 PHE A   2      -8.259  -1.136   1.268  1.00  0.00     0.004 A 
ATOM     25  CD2 PHE A   2      -7.953   0.728   2.788  1.00  0.00     0.004 A 
ATOM     26  CE1 PHE A   2      -9.622  -0.836   1.180  1.00  0.00     0.000 A 
ATOM     27  CE2 PHE A   2      -9.316   1.029   2.691  1.00  0.00     0.000 A 
ATOM     28  CZ  PHE A   2     -10.150   0.247   1.889  1.00  0.00     0.000 A 
ENDBRANCH  22  23
ENDBRANCH  10  22
ENDBRANCH   7  10
ENDBRANCH   5   6
BRANCH   5  29
ATOM     29  CB  HIS A   3      -1.824  -1.904  -0.984  1.00  0.00     0.093 C 
BRANCH  29  30
ATOM     30  CG  HIS A   3      -2.748  -2.859  -0.289  1.00  0.00     0.061 A 
ATOM     31  ND1 HIS A   3      -4.041  -3.041  -0.627  1.00  0.00    -0.242 NA
ATOM     32  CD2 HIS A   3      -2.435  -3.631   0.809  1.00  0.00     0.107 A 
ATOM     33  CE1 HIS A   3      -4.487  -3.937   0.279  1.00  0.00     0.196 A 
ATOM     34  NE2 HIS A   3      -3.538  -4.309   1.160  1.00  0.00    -0.351 N 
ATOM     35  H   UNL     1      -3.644  -4.975   1.957  1.00  0.00     0.167 HD
ENDBRANCH  29  30
ENDBRANCH   5  29
ENDBRANCH   1   5
BRANCH   3  36
ATOM     36  CA  LEU A   4       1.826   1.046  -0.773  1.00  0.00     0.171 C 
BRANCH  36  37
ATOM     37  C   LEU A   4       2.827  -0.067  -0.593  1.00  0.00     0.243 C 
ATOM     38  N   GLN A   5       3.949  -0.173  -1.485  1.00  0.00    -0.343 N 
ATOM     39  O   LEU A   4       2.674  -0.914   0.331  1.00  0.00    -0.273 OA
ATOM     40  H   UNL     1       4.102   0.583  -2.192  1.00  0.00     0.164 HD
BRANCH  38  41
ATOM     41  CA  GLN A   5       4.964  -1.219  -1.337  1.00  0.00     0.171 C 
BRANCH  41  42
ATOM     42  C   GLN A   5       6.003  -0.764  -0.341  1.00  0.00     0.243 C 
ATOM     43  N   ASN A   6       7.106   0.077  -0.734  1.00  0.00    -0.341 N 
ATOM     44  O   GLN A   5       5.870  -1.107   0.866  1.00  0.00    -0.273 OA
ATOM     45  H   UNL     1       7.149   0.441  -1.712  1.00  0.00     0.164 HD
BRANCH  43  46
ATOM     46  CA  ASN A   6       8.195   0.473   0.170  1.00  0.00     0.201 C 
BRANCH  46  47
ATOM     47  C   ASN A   6       8.769  -0.731   0.873  1.00  0.00     0.326 C 
ATOM     48  O   ASN A   6       9.243  -1.680   0.191  1.00  0.00    -0.250 OA
BRANCH  47  49
ATOM     49  OXT ASN A   6       8.758  -0.823   2.262  1.00  0.00    -0.480 OA
ATOM     50  H   UNL     1       9.124  -1.641   2.733  1.00  0.00     0.296 HD
ENDBRANCH  47  49
ENDBRANCH  46  47
BRANCH  46  51
ATOM     51  CB  ASN A   6       7.712   1.556   1.154  1.00  0.00     0.136 C 
BRANCH  51  52
ATOM     52  CG  ASN A   6       7.337   2.815   0.423  1.00  0.00     0.220 C 
ATOM     53  ND2 ASN A   6       8.332   3.789   0.107  1.00  0.00    -0.370 N 
ATOM     54  OD1 ASN A   6       6.148   2.996   0.047  1.00  0.00    -0.275 OA
ATOM     55  H   UNL     1       9.333   3.629   0.361  1.00  0.00     0.159 HD
ATOM     56  H   UNL     1       8.074   4.665  -0.400  1.00  0.00     0.159 HD
ENDBRANCH  51  52
ENDBRANCH  46  51
ENDBRANCH  43  46
ENDBRANCH  41  42
BRANCH  41  57
ATOM     57  CB  GLN A   5       5.544  -1.599  -2.720  1.00  0.00     0.045 C 
BRANCH  57  58
ATOM     58  CG  GLN A   5       6.641  -2.678  -2.662  1.00  0.00     0.102 C 
BRANCH  58  59
ATOM     59  CD  GLN A   5       6.128  -3.978  -2.111  1.00  0.00     0.217 C 
ATOM     60  NE2 GLN A   5       6.434  -4.372  -0.775  1.00  0.00    -0.370 N 
ATOM     61  OE1 GLN A   5       5.406  -4.719  -2.831  1.00  0.00    -0.275 OA
ATOM     62  H   UNL     1       7.022  -3.768  -0.162  1.00  0.00     0.159 HD
ATOM     63  H   UNL     1       6.078  -5.279  -0.399  1.00  0.00     0.159 HD
ENDBRANCH  58  59
ENDBRANCH  57  58
ENDBRANCH  41  57
ENDBRANCH  38  41
ENDBRANCH  36  37
BRANCH  36  64
ATOM     64  CB  LEU A   4       2.378   2.427  -0.343  1.00  0.00     0.038 C 
BRANCH  64  65
ATOM     65  CG  LEU A   4       2.370   2.754   1.174  1.00  0.00    -0.015 C 
ATOM     66  CD1 LEU A   4       3.259   1.810   1.996  1.00  0.00     0.007 C 
ATOM     67  CD2 LEU A   4       2.827   4.204   1.384  1.00  0.00     0.007 C 
ENDBRANCH  64  65
ENDBRANCH  36  64
ENDBRANCH   3  36
TORSDOF 26
