REMARK SMILES CC(C)C[C@H](NC(=O)[C@H](C)NC(=O)[C@H](Cc1c[nH]cn1)NC(=O)[C@@H](N)CO)C(=O)N[C@@H](CCCNC(=N)N)C(=O)N[C@@H](CC(N)=O)C(=O)O
REMARK SMILES IDX 7 1 8 2 6 3 9 5 10 6 11 7 12 8 13 9 14 11 21 12 22 13 23 14
REMARK SMILES IDX 24 16 25 17 26 20 27 21 15 23 16 24 20 25 17 26 19 27 18 28
REMARK SMILES IDX 5 30 28 31 30 32 29 33 31 35 39 36 41 37 40 38 42 40 47 41
REMARK SMILES IDX 48 42 49 43 43 45 44 46 45 47 46 48 32 51 33 52 34 53 35 54
REMARK SMILES IDX 36 55 38 56 37 60 4 62 2 63 1 64 3 65
REMARK H PARENT 6 4 11 10 21 15 25 18 25 19 27 22 18 29 30 34 41 39 49 44
REMARK H PARENT 45 49 45 50 35 57 38 58 38 59 37 61
ROOT
ATOM      1  C   ALA A   3      20.040  10.099  -6.459  1.00  0.00     0.242 C 
ATOM      2  O   ALA A   3      20.173   9.197  -5.585  1.00  0.00    -0.273 OA
ATOM      3  N   LEU A   4      20.559   9.922  -7.769  1.00  0.00    -0.343 N 
ATOM      4  H   UNL     1      20.390  10.659  -8.493  1.00  0.00     0.164 HD
ENDROOT
BRANCH   1   5
ATOM      5  CA  ALA A   3      19.329  11.369  -6.139  1.00  0.00     0.168 C 
ATOM      6  CB  ALA A   3      20.171  12.245  -5.221  1.00  0.00     0.041 C 
BRANCH   5   7
ATOM      7  N   ALA A   3      18.086  11.050  -5.479  1.00  0.00    -0.343 N 
ATOM      8  C   HIS A   2      16.875  11.745  -5.740  1.00  0.00     0.243 C 
ATOM      9  O   HIS A   2      16.884  12.784  -6.460  1.00  0.00    -0.273 OA
ATOM     10  H   UNL     1      18.177  10.530  -4.578  1.00  0.00     0.164 HD
BRANCH   8  11
ATOM     11  CA  HIS A   2      15.627  11.284  -5.040  1.00  0.00     0.177 C 
BRANCH  11  12
ATOM     12  N   HIS A   2      14.442  11.729  -5.760  1.00  0.00    -0.342 N 
ATOM     13  C   SER A   1      13.916  13.044  -5.632  1.00  0.00     0.239 C 
ATOM     14  O   SER A   1      14.452  13.861  -4.833  1.00  0.00    -0.273 OA
ATOM     15  H   UNL     1      13.855  11.000  -6.220  1.00  0.00     0.164 HD
BRANCH  13  16
ATOM     16  CA  SER A   1      12.662  13.411  -6.386  1.00  0.00     0.167 C 
BRANCH  16  17
ATOM     17  N   SER A   1      12.457  14.861  -6.396  1.00  0.00    -0.318 NA
ATOM     18  H   UNL     1      12.288  15.189  -5.417  1.00  0.00     0.119 HD
ATOM     19  H   UNL     1      13.319  15.337  -6.751  1.00  0.00     0.119 HD
ENDBRANCH  16  17
BRANCH  16  20
ATOM     20  CB  SER A   1      12.691  12.890  -7.842  1.00  0.00     0.184 C 
BRANCH  20  21
ATOM     21  OG  SER A   1      11.437  13.054  -8.445  1.00  0.00    -0.394 OA
ATOM     22  H   UNL     1      10.842  12.357  -8.062  1.00  0.00     0.210 HD
ENDBRANCH  20  21
ENDBRANCH  16  20
ENDBRANCH  13  16
ENDBRANCH  11  12
BRANCH  11  23
ATOM     23  CB  HIS A   2      15.591   9.741  -4.917  1.00  0.00     0.093 C 
BRANCH  23  24
ATOM     24  CG  HIS A   2      14.428   9.284  -4.096  1.00  0.00     0.061 A 
ATOM     25  ND1 HIS A   2      13.301   8.755  -4.613  1.00  0.00    -0.242 NA
ATOM     26  CD2 HIS A   2      14.313   9.385  -2.727  1.00  0.00     0.107 A 
ATOM     27  CE1 HIS A   2      12.522   8.534  -3.533  1.00  0.00     0.196 A 
ATOM     28  NE2 HIS A   2      13.110   8.907  -2.380  1.00  0.00    -0.351 N 
ATOM     29  H   UNL     1      12.710   8.843  -1.418  1.00  0.00     0.167 HD
ENDBRANCH  23  24
ENDBRANCH  11  23
ENDBRANCH   8  11
ENDBRANCH   5   7
ENDBRANCH   1   5
BRANCH   3  30
ATOM     30  CA  LEU A   4      21.345   8.761  -8.135  1.00  0.00     0.171 C 
BRANCH  30  31
ATOM     31  C   LEU A   4      22.711   9.217  -8.518  1.00  0.00     0.243 C 
ATOM     32  N   ARG A   5      23.821   8.720  -7.785  1.00  0.00    -0.343 N 
ATOM     33  O   LEU A   4      22.875  10.032  -9.466  1.00  0.00    -0.273 OA
ATOM     34  H   UNL     1      23.666   8.030  -7.015  1.00  0.00     0.164 HD
BRANCH  32  35
ATOM     35  CA  ARG A   5      25.184   9.122  -8.073  1.00  0.00     0.171 C 
BRANCH  35  36
ATOM     36  C   ARG A   5      25.899   7.968  -8.686  1.00  0.00     0.243 C 
ATOM     37  N   ASN A   6      25.913   7.864 -10.102  1.00  0.00    -0.341 N 
ATOM     38  O   ARG A   5      26.447   7.087  -7.969  1.00  0.00    -0.273 OA
ATOM     39  H   UNL     1      25.489   8.647 -10.651  1.00  0.00     0.164 HD
BRANCH  37  40
ATOM     40  CA  ASN A   6      26.542   6.751 -10.804  1.00  0.00     0.201 C 
BRANCH  40  41
ATOM     41  C   ASN A   6      27.993   6.642 -10.416  1.00  0.00     0.326 C 
ATOM     42  O   ASN A   6      28.794   7.579 -10.677  1.00  0.00    -0.250 OA
BRANCH  41  43
ATOM     43  OXT ASN A   6      28.451   5.499  -9.768  1.00  0.00    -0.480 OA
ATOM     44  H   UNL     1      29.424   5.409  -9.499  1.00  0.00     0.296 HD
ENDBRANCH  41  43
ENDBRANCH  40  41
BRANCH  40  45
ATOM     45  CB  ASN A   6      26.424   6.946 -12.323  1.00  0.00     0.136 C 
BRANCH  45  46
ATOM     46  CG  ASN A   6      25.010   7.180 -12.773  1.00  0.00     0.220 C 
ATOM     47  ND2 ASN A   6      24.753   8.090 -13.833  1.00  0.00    -0.370 N 
ATOM     48  OD1 ASN A   6      24.053   6.558 -12.243  1.00  0.00    -0.275 OA
ATOM     49  H   UNL     1      25.533   8.600 -14.306  1.00  0.00     0.159 HD
ATOM     50  H   UNL     1      23.775   8.258 -14.156  1.00  0.00     0.159 HD
ENDBRANCH  45  46
ENDBRANCH  40  45
ENDBRANCH  37  40
ENDBRANCH  35  36
BRANCH  35  51
ATOM     51  CB  ARG A   5      25.863   9.605  -6.796  1.00  0.00     0.037 C 
BRANCH  51  52
ATOM     52  CG  ARG A   5      25.167  10.861  -6.272  1.00  0.00     0.024 C 
BRANCH  52  53
ATOM     53  CD  ARG A   5      25.842  11.391  -5.015  1.00  0.00     0.116 C 
BRANCH  53  54
ATOM     54  NE  ARG A   5      25.378  10.685  -3.823  1.00  0.00    -0.357 N 
ATOM     55  CZ  ARG A   5      25.469  11.279  -2.527  1.00  0.00     0.185 C 
ATOM     56  NH2 ARG A   5      26.106  12.541  -2.350  1.00  0.00    -0.370 N 
ATOM     57  H   UNL     1      24.904   9.757  -3.922  1.00  0.00     0.163 HD
ATOM     58  H   UNL     1      26.693  12.983  -3.090  1.00  0.00     0.159 HD
ATOM     59  H   UNL     1      26.083  13.006  -1.415  1.00  0.00     0.159 HD
BRANCH  55  60
ATOM     60  NH1 ARG A   5      24.959  10.678  -1.500  1.00  0.00    -0.270 NA
ATOM     61  H   UNL     1      24.478   9.755  -1.583  1.00  0.00     0.191 HD
ENDBRANCH  55  60
ENDBRANCH  53  54
ENDBRANCH  52  53
ENDBRANCH  51  52
ENDBRANCH  35  51
ENDBRANCH  32  35
ENDBRANCH  30  31
BRANCH  30  62
ATOM     62  CB  LEU A   4      20.653   7.999  -9.269  1.00  0.00     0.038 C 
BRANCH  62  63
ATOM     63  CG  LEU A   4      21.448   6.772  -9.767  1.00  0.00    -0.015 C 
ATOM     64  CD1 LEU A   4      21.762   5.779  -8.638  1.00  0.00     0.007 C 
ATOM     65  CD2 LEU A   4      20.662   6.068 -10.877  1.00  0.00     0.007 C 
ENDBRANCH  62  63
ENDBRANCH  30  62
ENDBRANCH   3  30
TORSDOF 26
