REMARK SMILES CC(C)C[C@H](NC(=O)CNC(=O)[C@H](CCCNC(=N)N)NC(=O)[C@@H](N)CO)C(=O)N[C@@H](CCCNC(=N)N)C(=O)N[C@@H](CC(N)=O)C(=O)O
REMARK SMILES IDX 7 1 8 2 6 3 9 5 10 6 11 7 12 8 13 10 21 11 22 12 23 13 24 15
REMARK SMILES IDX 25 16 26 19 27 20 14 22 15 23 16 24 17 25 18 26 20 27 19 31
REMARK SMILES IDX 5 33 28 34 30 35 29 36 31 38 39 39 41 40 40 41 42 43 47 44
REMARK SMILES IDX 48 45 49 46 43 48 44 49 45 50 46 51 32 54 33 55 34 56 35 57
REMARK SMILES IDX 36 58 38 59 37 63 4 65 2 66 1 67 3 68
REMARK H PARENT 6 4 10 9 21 14 25 17 25 18 27 21 17 28 20 29 20 30 19 32 30 37
REMARK H PARENT 41 42 49 47 45 52 45 53 35 60 38 61 38 62 37 64
ROOT
ATOM      1  C   GLY A   3      20.037  10.100  -6.464  1.00  0.00     0.240 C 
ATOM      2  O   GLY A   3      20.171   9.204  -5.584  1.00  0.00    -0.273 OA
ATOM      3  N   LEU A   4      20.557   9.921  -7.772  1.00  0.00    -0.343 N 
ATOM      4  H   UNL     1      20.388  10.655  -8.498  1.00  0.00     0.164 HD
ENDROOT
BRANCH   1   5
ATOM      5  CA  GLY A   3      19.340  11.373  -6.148  1.00  0.00     0.216 C 
BRANCH   5   6
ATOM      6  N   GLY A   3      18.104  11.077  -5.461  1.00  0.00    -0.345 N 
ATOM      7  C   ARG A   2      16.886  11.755  -5.739  1.00  0.00     0.243 C 
ATOM      8  O   ARG A   2      16.889  12.786  -6.467  1.00  0.00    -0.273 OA
ATOM      9  H   UNL     1      18.208  10.596  -4.540  1.00  0.00     0.164 HD
BRANCH   7  10
ATOM     10  CA  ARG A   2      15.633  11.289  -5.046  1.00  0.00     0.171 C 
BRANCH  10  11
ATOM     11  N   ARG A   2      14.452  11.734  -5.772  1.00  0.00    -0.343 N 
ATOM     12  C   SER A   1      13.915  13.046  -5.637  1.00  0.00     0.239 C 
ATOM     13  O   SER A   1      14.450  13.862  -4.837  1.00  0.00    -0.273 OA
ATOM     14  H   UNL     1      13.892  11.011  -6.272  1.00  0.00     0.164 HD
BRANCH  12  15
ATOM     15  CA  SER A   1      12.656  13.409  -6.385  1.00  0.00     0.167 C 
BRANCH  15  16
ATOM     16  N   SER A   1      12.468  14.862  -6.378  1.00  0.00    -0.318 NA
ATOM     17  H   UNL     1      11.582  15.089  -6.885  1.00  0.00     0.119 HD
ATOM     18  H   UNL     1      12.306  15.170  -5.391  1.00  0.00     0.119 HD
ENDBRANCH  15  16
BRANCH  15  19
ATOM     19  CB  SER A   1      12.693  12.900  -7.847  1.00  0.00     0.184 C 
BRANCH  19  20
ATOM     20  OG  SER A   1      11.437  13.042  -8.450  1.00  0.00    -0.394 OA
ATOM     21  H   UNL     1      10.855  12.334  -8.066  1.00  0.00     0.210 HD
ENDBRANCH  19  20
ENDBRANCH  15  19
ENDBRANCH  12  15
ENDBRANCH  10  11
BRANCH  10  22
ATOM     22  CB  ARG A   2      15.600   9.746  -4.931  1.00  0.00     0.037 C 
BRANCH  22  23
ATOM     23  CG  ARG A   2      14.433   9.262  -4.068  1.00  0.00     0.024 C 
BRANCH  23  24
ATOM     24  CD  ARG A   2      14.416   7.731  -3.967  1.00  0.00     0.116 C 
BRANCH  24  25
ATOM     25  NE  ARG A   2      13.296   7.283  -3.139  1.00  0.00    -0.357 N 
ATOM     26  CZ  ARG A   2      13.236   7.396  -1.705  1.00  0.00     0.185 C 
ATOM     27  NH2 ARG A   2      12.032   7.039  -1.026  1.00  0.00    -0.370 N 
ATOM     28  H   UNL     1      12.487   6.837  -3.627  1.00  0.00     0.163 HD
ATOM     29  H   UNL     1      11.199   6.709  -1.561  1.00  0.00     0.159 HD
ATOM     30  H   UNL     1      11.969   7.106   0.015  1.00  0.00     0.159 HD
BRANCH  26  31
ATOM     31  NH1 ARG A   2      14.254   7.799  -1.008  1.00  0.00    -0.270 NA
ATOM     32  H   UNL     1      15.173   8.067  -1.422  1.00  0.00     0.191 HD
ENDBRANCH  26  31
ENDBRANCH  24  25
ENDBRANCH  23  24
ENDBRANCH  22  23
ENDBRANCH  10  22
ENDBRANCH   7  10
ENDBRANCH   5   6
ENDBRANCH   1   5
BRANCH   3  33
ATOM     33  CA  LEU A   4      21.345   8.760  -8.135  1.00  0.00     0.171 C 
BRANCH  33  34
ATOM     34  C   LEU A   4      22.711   9.216  -8.518  1.00  0.00     0.243 C 
ATOM     35  N   ARG A   5      23.821   8.720  -7.784  1.00  0.00    -0.343 N 
ATOM     36  O   LEU A   4      22.874  10.032  -9.466  1.00  0.00    -0.273 OA
ATOM     37  H   UNL     1      23.666   8.029  -7.015  1.00  0.00     0.164 HD
BRANCH  35  38
ATOM     38  CA  ARG A   5      25.184   9.121  -8.073  1.00  0.00     0.171 C 
BRANCH  38  39
ATOM     39  C   ARG A   5      25.899   7.967  -8.686  1.00  0.00     0.243 C 
ATOM     40  N   ASN A   6      25.913   7.864 -10.102  1.00  0.00    -0.341 N 
ATOM     41  O   ARG A   5      26.447   7.087  -7.969  1.00  0.00    -0.273 OA
ATOM     42  H   UNL     1      25.489   8.647 -10.651  1.00  0.00     0.164 HD
BRANCH  40  43
ATOM     43  CA  ASN A   6      26.542   6.751 -10.804  1.00  0.00     0.201 C 
BRANCH  43  44
ATOM     44  C   ASN A   6      27.993   6.642 -10.416  1.00  0.00     0.326 C 
ATOM     45  O   ASN A   6      28.794   7.579 -10.677  1.00  0.00    -0.250 OA
BRANCH  44  46
ATOM     46  OXT ASN A   6      28.451   5.499  -9.768  1.00  0.00    -0.480 OA
ATOM     47  H   UNL     1      29.424   5.409  -9.499  1.00  0.00     0.296 HD
ENDBRANCH  44  46
ENDBRANCH  43  44
BRANCH  43  48
ATOM     48  CB  ASN A   6      26.424   6.946 -12.323  1.00  0.00     0.136 C 
BRANCH  48  49
ATOM     49  CG  ASN A   6      25.010   7.180 -12.773  1.00  0.00     0.220 C 
ATOM     50  ND2 ASN A   6      24.753   8.090 -13.833  1.00  0.00    -0.370 N 
ATOM     51  OD1 ASN A   6      24.053   6.558 -12.243  1.00  0.00    -0.275 OA
ATOM     52  H   UNL     1      23.774   8.258 -14.156  1.00  0.00     0.159 HD
ATOM     53  H   UNL     1      25.533   8.600 -14.306  1.00  0.00     0.159 HD
ENDBRANCH  48  49
ENDBRANCH  43  48
ENDBRANCH  40  43
ENDBRANCH  38  39
BRANCH  38  54
ATOM     54  CB  ARG A   5      25.863   9.605  -6.796  1.00  0.00     0.037 C 
BRANCH  54  55
ATOM     55  CG  ARG A   5      25.168  10.861  -6.272  1.00  0.00     0.024 C 
BRANCH  55  56
ATOM     56  CD  ARG A   5      25.842  11.391  -5.015  1.00  0.00     0.116 C 
BRANCH  56  57
ATOM     57  NE  ARG A   5      25.379  10.684  -3.823  1.00  0.00    -0.357 N 
ATOM     58  CZ  ARG A   5      25.469  11.279  -2.527  1.00  0.00     0.185 C 
ATOM     59  NH2 ARG A   5      26.106  12.541  -2.349  1.00  0.00    -0.370 N 
ATOM     60  H   UNL     1      24.905   9.757  -3.922  1.00  0.00     0.163 HD
ATOM     61  H   UNL     1      26.694  12.982  -3.090  1.00  0.00     0.159 HD
ATOM     62  H   UNL     1      26.083  13.006  -1.415  1.00  0.00     0.159 HD
BRANCH  58  63
ATOM     63  NH1 ARG A   5      24.959  10.678  -1.500  1.00  0.00    -0.270 NA
ATOM     64  H   UNL     1      24.478   9.755  -1.583  1.00  0.00     0.191 HD
ENDBRANCH  58  63
ENDBRANCH  56  57
ENDBRANCH  55  56
ENDBRANCH  54  55
ENDBRANCH  38  54
ENDBRANCH  35  38
ENDBRANCH  33  34
BRANCH  33  65
ATOM     65  CB  LEU A   4      20.654   7.998  -9.269  1.00  0.00     0.038 C 
BRANCH  65  66
ATOM     66  CG  LEU A   4      21.448   6.771  -9.767  1.00  0.00    -0.015 C 
ATOM     67  CD1 LEU A   4      21.762   5.778  -8.638  1.00  0.00     0.007 C 
ATOM     68  CD2 LEU A   4      20.662   6.067 -10.877  1.00  0.00     0.007 C 
ENDBRANCH  65  66
ENDBRANCH  33  65
ENDBRANCH   3  33
TORSDOF 29
