REMARK SMILES C[C@H](NC(=O)[C@H](CCC(=O)O)NC(=O)[C@H](Cc1ccccc1)NC(=O)[C@@H](N)CO)C(=O)N[C@@H](CCCNC(=N)N)C(=O)N[C@@H](CC(N)=O)C(=O)O
REMARK SMILES IDX 4 1 5 2 3 3 6 5 12 6 13 7 14 8 15 10 23 11 24 12 25 13 26 15
REMARK SMILES IDX 27 16 28 19 29 20 16 22 17 23 18 24 22 25 19 26 21 27 20 28
REMARK SMILES IDX 7 29 8 30 9 31 10 32 11 33 2 35 1 36 30 37 32 38 31 39 33 41
REMARK SMILES IDX 41 42 43 43 42 44 44 46 49 47 50 48 51 49 45 51 46 52 47 53
REMARK SMILES IDX 48 54 34 57 35 58 36 59 37 60 38 61 40 62 39 66
REMARK H PARENT 3 4 12 9 23 14 27 17 27 18 29 21 11 34 32 40 43 45 51 50 47 55
REMARK H PARENT 47 56 37 63 40 64 40 65 39 67
ROOT
ATOM      1  C   GLU A   3      20.039  10.077  -6.473  1.00  0.00     0.243 C 
ATOM      2  O   GLU A   3      20.158   9.159  -5.615  1.00  0.00    -0.273 OA
ATOM      3  N   ALA A   4      20.559   9.909  -7.782  1.00  0.00    -0.343 N 
ATOM      4  H   UNL     1      20.400  10.652  -8.500  1.00  0.00     0.164 HD
ENDROOT
BRANCH   1   5
ATOM      5  CA  GLU A   3      19.339  11.354  -6.142  1.00  0.00     0.172 C 
BRANCH   5   6
ATOM      6  N   GLU A   3      18.088  11.049  -5.498  1.00  0.00    -0.342 N 
ATOM      7  C   PHE A   2      16.886  11.750  -5.772  1.00  0.00     0.243 C 
ATOM      8  O   PHE A   2      16.902  12.792  -6.484  1.00  0.00    -0.273 OA
ATOM      9  H   UNL     1      18.163  10.510  -4.610  1.00  0.00     0.164 HD
BRANCH   7  10
ATOM     10  CA  PHE A   2      15.651  11.314  -5.059  1.00  0.00     0.175 C 
BRANCH  10  11
ATOM     11  N   PHE A   2      14.454  11.741  -5.769  1.00  0.00    -0.343 N 
ATOM     12  C   SER A   1      13.915  13.051  -5.637  1.00  0.00     0.239 C 
ATOM     13  O   SER A   1      14.443  13.871  -4.836  1.00  0.00    -0.273 OA
ATOM     14  H   UNL     1      13.865  11.002  -6.210  1.00  0.00     0.164 HD
BRANCH  12  15
ATOM     15  CA  SER A   1      12.661  13.411  -6.389  1.00  0.00     0.167 C 
BRANCH  15  16
ATOM     16  N   SER A   1      12.471  14.863  -6.376  1.00  0.00    -0.318 NA
ATOM     17  H   UNL     1      11.539  15.087  -6.794  1.00  0.00     0.119 HD
ATOM     18  H   UNL     1      13.202  15.318  -6.972  1.00  0.00     0.119 HD
ENDBRANCH  15  16
BRANCH  15  19
ATOM     19  CB  SER A   1      12.687  12.879  -7.845  1.00  0.00     0.184 C 
BRANCH  19  20
ATOM     20  OG  SER A   1      11.436  13.048  -8.451  1.00  0.00    -0.394 OA
ATOM     21  H   UNL     1      10.831  12.368  -8.054  1.00  0.00     0.210 HD
ENDBRANCH  19  20
ENDBRANCH  15  19
ENDBRANCH  12  15
ENDBRANCH  10  11
BRANCH  10  22
ATOM     22  CB  PHE A   2      15.612   9.774  -4.891  1.00  0.00     0.070 C 
BRANCH  22  23
ATOM     23  CG  PHE A   2      14.444   9.289  -4.090  1.00  0.00    -0.045 A 
ATOM     24  CD1 PHE A   2      13.903  10.047  -3.033  1.00  0.00     0.004 A 
ATOM     25  CD2 PHE A   2      13.968   7.990  -4.310  1.00  0.00     0.004 A 
ATOM     26  CE1 PHE A   2      12.869   9.536  -2.260  1.00  0.00     0.000 A 
ATOM     27  CE2 PHE A   2      12.940   7.477  -3.521  1.00  0.00     0.000 A 
ATOM     28  CZ  PHE A   2      12.386   8.252  -2.502  1.00  0.00     0.000 A 
ENDBRANCH  22  23
ENDBRANCH  10  22
ENDBRANCH   7  10
ENDBRANCH   5   6
BRANCH   5  29
ATOM     29  CB  GLU A   3      20.197  12.250  -5.242  1.00  0.00     0.047 C 
BRANCH  29  30
ATOM     30  CG  GLU A   3      20.417  11.712  -3.811  1.00  0.00     0.125 C 
BRANCH  30  31
ATOM     31  CD  GLU A   3      21.777  12.068  -3.305  1.00  0.00     0.303 C 
ATOM     32  OE1 GLU A   3      22.413  11.237  -2.606  1.00  0.00    -0.252 OA
BRANCH  31  33
ATOM     33  OE2 GLU A   3      22.312  13.332  -3.536  1.00  0.00    -0.481 OA
ATOM     34  H   UNL     1      23.226  13.583  -3.178  1.00  0.00     0.296 HD
ENDBRANCH  31  33
ENDBRANCH  30  31
ENDBRANCH  29  30
ENDBRANCH   5  29
ENDBRANCH   1   5
BRANCH   3  35
ATOM     35  CA  ALA A   4      21.341   8.746  -8.154  1.00  0.00     0.168 C 
ATOM     36  CB  ALA A   4      20.665   8.004  -9.297  1.00  0.00     0.041 C 
BRANCH  35  37
ATOM     37  C   ALA A   4      22.709   9.198  -8.531  1.00  0.00     0.242 C 
ATOM     38  N   ARG A   5      23.817   8.706  -7.790  1.00  0.00    -0.343 N 
ATOM     39  O   ALA A   4      22.875  10.026  -9.468  1.00  0.00    -0.273 OA
ATOM     40  H   UNL     1      23.662   7.984  -7.049  1.00  0.00     0.164 HD
BRANCH  38  41
ATOM     41  CA  ARG A   5      25.180   9.117  -8.072  1.00  0.00     0.171 C 
BRANCH  41  42
ATOM     42  C   ARG A   5      25.901   7.968  -8.685  1.00  0.00     0.243 C 
ATOM     43  N   ASN A   6      25.916   7.866 -10.102  1.00  0.00    -0.341 N 
ATOM     44  O   ARG A   5      26.450   7.087  -7.970  1.00  0.00    -0.273 OA
ATOM     45  H   UNL     1      25.496   8.651 -10.651  1.00  0.00     0.164 HD
BRANCH  43  46
ATOM     46  CA  ASN A   6      26.543   6.751 -10.804  1.00  0.00     0.201 C 
BRANCH  46  47
ATOM     47  C   ASN A   6      27.994   6.642 -10.417  1.00  0.00     0.326 C 
ATOM     48  O   ASN A   6      28.795   7.579 -10.677  1.00  0.00    -0.250 OA
BRANCH  47  49
ATOM     49  OXT ASN A   6      28.453   5.497  -9.772  1.00  0.00    -0.480 OA
ATOM     50  H   UNL     1      29.426   5.407  -9.504  1.00  0.00     0.296 HD
ENDBRANCH  47  49
ENDBRANCH  46  47
BRANCH  46  51
ATOM     51  CB  ASN A   6      26.424   6.946 -12.323  1.00  0.00     0.136 C 
BRANCH  51  52
ATOM     52  CG  ASN A   6      25.009   7.181 -12.772  1.00  0.00     0.220 C 
ATOM     53  ND2 ASN A   6      24.753   8.089 -13.834  1.00  0.00    -0.370 N 
ATOM     54  OD1 ASN A   6      24.051   6.563 -12.238  1.00  0.00    -0.275 OA
ATOM     55  H   UNL     1      23.775   8.258 -14.156  1.00  0.00     0.159 HD
ATOM     56  H   UNL     1      25.533   8.595 -14.309  1.00  0.00     0.159 HD
ENDBRANCH  51  52
ENDBRANCH  46  51
ENDBRANCH  43  46
ENDBRANCH  41  42
BRANCH  41  57
ATOM     57  CB  ARG A   5      25.855   9.600  -6.792  1.00  0.00     0.037 C 
BRANCH  57  58
ATOM     58  CG  ARG A   5      25.160  10.857  -6.269  1.00  0.00     0.024 C 
BRANCH  58  59
ATOM     59  CD  ARG A   5      25.837  11.391  -5.014  1.00  0.00     0.116 C 
BRANCH  59  60
ATOM     60  NE  ARG A   5      25.380  10.687  -3.818  1.00  0.00    -0.357 N 
ATOM     61  CZ  ARG A   5      25.482  11.280  -2.524  1.00  0.00     0.185 C 
ATOM     62  NH2 ARG A   5      26.110  12.549  -2.353  1.00  0.00    -0.370 N 
ATOM     63  H   UNL     1      24.899   9.763  -3.908  1.00  0.00     0.163 HD
ATOM     64  H   UNL     1      26.688  12.993  -3.099  1.00  0.00     0.159 HD
ATOM     65  H   UNL     1      26.086  13.026  -1.424  1.00  0.00     0.159 HD
BRANCH  61  66
ATOM     66  NH1 ARG A   5      24.982  10.664  -1.500  1.00  0.00    -0.270 NA
ATOM     67  H   UNL     1      25.030  11.068  -0.538  1.00  0.00     0.191 HD
ENDBRANCH  61  66
ENDBRANCH  59  60
ENDBRANCH  58  59
ENDBRANCH  57  58
ENDBRANCH  41  57
ENDBRANCH  38  41
ENDBRANCH  35  37
ENDBRANCH   3  35
TORSDOF 28
