REMARK SMILES CC(C)C[C@H](NC(=O)[C@H](CC(N)=O)NC(=O)[C@H](Cc1ccccc1)NC(=O)[C@@H](N)CO)C(=O)N[C@@H](Cc1c[nH]cn1)C(=O)N[C@@H](CC(N)=O)C(=O)O
REMARK SMILES IDX 7 1 8 2 6 3 9 5 14 6 15 7 16 8 17 10 25 11 26 12 27 13 28 15
REMARK SMILES IDX 29 16 30 19 31 20 18 22 19 23 20 24 24 25 21 26 23 27 22 28
REMARK SMILES IDX 10 29 11 30 12 31 13 32 5 35 32 36 34 37 33 38 35 40 42 41
REMARK SMILES IDX 44 42 43 43 45 45 50 46 51 47 52 48 46 50 47 51 48 52 49 53
REMARK SMILES IDX 36 56 37 57 41 58 38 59 40 60 39 61 4 63 2 64 1 65 3 66
REMARK H PARENT 6 4 14 9 25 14 29 17 29 18 31 21 12 33 12 34 34 39 44 44 52 49
REMARK H PARENT 48 54 48 55 39 62
ROOT
ATOM      1  C   ASN A   3      -1.411  -1.818  -1.123  1.00  0.00     0.243 C 
ATOM      2  O   ASN A   3      -1.520  -2.845  -0.398  1.00  0.00    -0.273 OA
ATOM      3  N   LEU A   4      -0.111  -1.286  -1.429  1.00  0.00    -0.342 N 
ATOM      4  H   UNL     1      -0.050  -0.394  -1.968  1.00  0.00     0.164 HD
ENDROOT
BRANCH   1   5
ATOM      5  CA  ASN A   3      -2.662  -1.139  -1.626  1.00  0.00     0.180 C 
BRANCH   5   6
ATOM      6  N   ASN A   3      -2.833   0.146  -0.945  1.00  0.00    -0.342 N 
ATOM      7  C   PHE A   2      -4.128   0.699  -0.674  1.00  0.00     0.243 C 
ATOM      8  O   PHE A   2      -5.154   0.209  -1.220  1.00  0.00    -0.273 OA
ATOM      9  H   UNL     1      -1.993   0.653  -0.584  1.00  0.00     0.164 HD
BRANCH   7  10
ATOM     10  CA  PHE A   2      -4.268   1.810   0.336  1.00  0.00     0.175 C 
BRANCH  10  11
ATOM     11  N   PHE A   2      -5.525   2.540   0.137  1.00  0.00    -0.343 N 
ATOM     12  C   SER A   1      -5.689   3.505  -0.915  1.00  0.00     0.239 C 
ATOM     13  O   SER A   1      -4.736   3.741  -1.709  1.00  0.00    -0.273 OA
ATOM     14  H   UNL     1      -6.341   2.338   0.754  1.00  0.00     0.164 HD
BRANCH  12  15
ATOM     15  CA  SER A   1      -6.990   4.243  -1.088  1.00  0.00     0.167 C 
BRANCH  15  16
ATOM     16  N   SER A   1      -8.060   3.294  -1.412  1.00  0.00    -0.318 NA
ATOM     17  H   UNL     1      -8.316   2.745  -0.561  1.00  0.00     0.119 HD
ATOM     18  H   UNL     1      -8.910   3.833  -1.696  1.00  0.00     0.119 HD
ENDBRANCH  15  16
BRANCH  15  19
ATOM     19  CB  SER A   1      -7.324   5.072   0.167  1.00  0.00     0.184 C 
BRANCH  19  20
ATOM     20  OG  SER A   1      -8.472   5.850  -0.043  1.00  0.00    -0.394 OA
ATOM     21  H   UNL     1      -8.199   6.607  -0.623  1.00  0.00     0.210 HD
ENDBRANCH  19  20
ENDBRANCH  15  19
ENDBRANCH  12  15
ENDBRANCH  10  11
BRANCH  10  22
ATOM     22  CB  PHE A   2      -4.145   1.279   1.783  1.00  0.00     0.070 C 
BRANCH  22  23
ATOM     23  CG  PHE A   2      -5.102   0.153   2.106  1.00  0.00    -0.045 A 
ATOM     24  CD1 PHE A   2      -6.346   0.422   2.706  1.00  0.00     0.004 A 
ATOM     25  CD2 PHE A   2      -4.758  -1.178   1.808  1.00  0.00     0.004 A 
ATOM     26  CE1 PHE A   2      -7.235  -0.622   2.981  1.00  0.00     0.000 A 
ATOM     27  CE2 PHE A   2      -5.650  -2.217   2.086  1.00  0.00     0.000 A 
ATOM     28  CZ  PHE A   2      -6.888  -1.940   2.670  1.00  0.00     0.000 A 
ENDBRANCH  22  23
ENDBRANCH  10  22
ENDBRANCH   7  10
ENDBRANCH   5   6
BRANCH   5  29
ATOM     29  CB  ASN A   3      -2.650  -0.934  -3.152  1.00  0.00     0.134 C 
BRANCH  29  30
ATOM     30  CG  ASN A   3      -2.545  -2.240  -3.885  1.00  0.00     0.220 C 
ATOM     31  ND2 ASN A   3      -3.709  -3.036  -4.113  1.00  0.00    -0.370 N 
ATOM     32  OD1 ASN A   3      -1.419  -2.656  -4.267  1.00  0.00    -0.275 OA
ATOM     33  H   UNL     1      -4.648  -2.707  -3.794  1.00  0.00     0.159 HD
ATOM     34  H   UNL     1      -3.632  -3.954  -4.601  1.00  0.00     0.159 HD
ENDBRANCH  29  30
ENDBRANCH   5  29
ENDBRANCH   1   5
BRANCH   3  35
ATOM     35  CA  LEU A   4       1.123  -1.928  -0.962  1.00  0.00     0.171 C 
BRANCH  35  36
ATOM     36  C   LEU A   4       2.265  -0.943  -1.061  1.00  0.00     0.243 C 
ATOM     37  N   HIS A   5       2.796  -0.332   0.126  1.00  0.00    -0.342 N 
ATOM     38  O   LEU A   4       2.716  -0.626  -2.196  1.00  0.00    -0.273 OA
ATOM     39  H   UNL     1       2.432  -0.652   1.053  1.00  0.00     0.164 HD
BRANCH  37  40
ATOM     40  CA  HIS A   5       3.905   0.630   0.101  1.00  0.00     0.177 C 
BRANCH  40  41
ATOM     41  C   HIS A   5       5.174  -0.006   0.607  1.00  0.00     0.243 C 
ATOM     42  N   ASN A   6       6.446   0.513   0.190  1.00  0.00    -0.340 N 
ATOM     43  O   HIS A   5       5.116  -0.959   1.433  1.00  0.00    -0.273 OA
ATOM     44  H   UNL     1       6.447   1.352  -0.434  1.00  0.00     0.164 HD
BRANCH  42  45
ATOM     45  CA  ASN A   6       7.710   0.088   0.805  1.00  0.00     0.201 C 
BRANCH  45  46
ATOM     46  C   ASN A   6       8.081   1.011   1.932  1.00  0.00     0.326 C 
ATOM     47  O   ASN A   6       7.859   2.250   1.845  1.00  0.00    -0.250 OA
BRANCH  46  48
ATOM     48  OXT ASN A   6       8.706   0.499   3.064  1.00  0.00    -0.480 OA
ATOM     49  H   UNL     1       8.976   1.106   3.828  1.00  0.00     0.296 HD
ENDBRANCH  46  48
ENDBRANCH  45  46
BRANCH  45  50
ATOM     50  CB  ASN A   6       8.834  -0.019  -0.244  1.00  0.00     0.136 C 
BRANCH  50  51
ATOM     51  CG  ASN A   6       9.148   1.285  -0.924  1.00  0.00     0.220 C 
ATOM     52  ND2 ASN A   6       8.521   1.631  -2.159  1.00  0.00    -0.370 N 
ATOM     53  OD1 ASN A   6       9.963   2.088  -0.395  1.00  0.00    -0.275 OA
ATOM     54  H   UNL     1       8.741   2.538  -2.626  1.00  0.00     0.159 HD
ATOM     55  H   UNL     1       7.830   0.989  -2.605  1.00  0.00     0.159 HD
ENDBRANCH  50  51
ENDBRANCH  45  50
ENDBRANCH  42  45
ENDBRANCH  40  41
BRANCH  40  56
ATOM     56  CB  HIS A   5       3.551   1.897   0.903  1.00  0.00     0.093 C 
BRANCH  56  57
ATOM     57  CG  HIS A   5       3.318   1.630   2.362  1.00  0.00     0.061 A 
ATOM     58  ND1 HIS A   5       2.116   1.327   2.892  1.00  0.00    -0.242 NA
ATOM     59  CD2 HIS A   5       4.281   1.618   3.347  1.00  0.00     0.107 A 
ATOM     60  CE1 HIS A   5       2.379   1.141   4.204  1.00  0.00     0.196 A 
ATOM     61  NE2 HIS A   5       3.681   1.310   4.506  1.00  0.00    -0.351 N 
ATOM     62  H   UNL     1       4.129   1.216   5.444  1.00  0.00     0.167 HD
ENDBRANCH  56  57
ENDBRANCH  40  56
ENDBRANCH  37  40
ENDBRANCH  35  36
BRANCH  35  63
ATOM     63  CB  LEU A   4       1.402  -3.216  -1.779  1.00  0.00     0.038 C 
BRANCH  63  64
ATOM     64  CG  LEU A   4       2.232  -4.275  -1.013  1.00  0.00    -0.015 C 
ATOM     65  CD1 LEU A   4       2.236  -5.599  -1.789  1.00  0.00     0.007 C 
ATOM     66  CD2 LEU A   4       3.675  -3.817  -0.761  1.00  0.00     0.007 C 
ENDBRANCH  63  64
ENDBRANCH  35  63
ENDBRANCH   3  35
TORSDOF 25
