REMARK SMILES CC(C)C[C@H](NC(=O)[C@H](Cc1c[nH]cn1)NC(=O)[C@H](Cc1ccccc1)NC(=O)[C@H](C)N)C(=O)N[C@@H](CCCNC(=N)N)C(=O)N[C@@H](CC(N)=O)C(=O)O
REMARK SMILES IDX 5 1 6 2 7 3 8 4 9 6 16 7 17 8 18 9 19 11 27 12 28 13 29 14
REMARK SMILES IDX 30 16 31 17 32 18 20 21 21 22 22 23 26 24 23 25 25 26 24 27
REMARK SMILES IDX 10 28 11 29 15 30 12 31 14 32 13 33 33 35 35 36 34 37 36 39
REMARK SMILES IDX 44 40 46 41 45 42 47 44 52 45 53 46 54 47 48 49 49 50 50 51
REMARK SMILES IDX 51 52 37 55 38 56 39 57 40 58 41 59 43 60 42 64 4 66 2 67
REMARK SMILES IDX 1 68 3 69
REMARK H PARENT 6 5 16 10 27 15 32 19 32 20 13 34 35 38 46 43 54 48 50 53
REMARK H PARENT 50 54 40 61 43 62 43 63 42 65
ROOT
ATOM      1  CA  LEU A   4       1.275  -1.073  -1.462  1.00  0.00     0.171 C 
ENDROOT
BRANCH   1   2
ATOM      2  N   LEU A   4       0.357   0.069  -1.479  1.00  0.00    -0.342 N 
ATOM      3  C   HIS A   3      -0.860   0.105  -0.717  1.00  0.00     0.243 C 
ATOM      4  O   HIS A   3      -1.331  -0.956  -0.223  1.00  0.00    -0.273 OA
ATOM      5  H   UNL     1       0.617   0.913  -2.038  1.00  0.00     0.164 HD
BRANCH   3   6
ATOM      6  CA  HIS A   3      -1.555   1.425  -0.489  1.00  0.00     0.177 C 
BRANCH   6   7
ATOM      7  N   HIS A   3      -2.909   1.225   0.044  1.00  0.00    -0.342 N 
ATOM      8  C   PHE A   2      -4.048   1.034  -0.809  1.00  0.00     0.243 C 
ATOM      9  O   PHE A   2      -3.908   1.028  -2.063  1.00  0.00    -0.273 OA
ATOM     10  H   UNL     1      -3.036   1.093   1.074  1.00  0.00     0.164 HD
BRANCH   8  11
ATOM     11  CA  PHE A   2      -5.406   0.790  -0.210  1.00  0.00     0.175 C 
BRANCH  11  12
ATOM     12  N   PHE A   2      -6.407   1.608  -0.899  1.00  0.00    -0.343 N 
ATOM     13  C   ALA A   1      -6.832   2.886  -0.399  1.00  0.00     0.237 C 
ATOM     14  O   ALA A   1      -6.190   3.445   0.531  1.00  0.00    -0.273 OA
ATOM     15  H   UNL     1      -6.795   1.264  -1.806  1.00  0.00     0.164 HD
BRANCH  13  16
ATOM     16  CA  ALA A   1      -8.045   3.578  -0.976  1.00  0.00     0.138 C 
ATOM     17  CB  ALA A   1      -9.284   2.685  -0.895  1.00  0.00     0.035 C 
BRANCH  16  18
ATOM     18  N   ALA A   1      -7.810   3.995  -2.359  1.00  0.00    -0.320 NA
ATOM     19  H   UNL     1      -6.992   4.649  -2.373  1.00  0.00     0.119 HD
ATOM     20  H   UNL     1      -7.559   3.164  -2.945  1.00  0.00     0.119 HD
ENDBRANCH  16  18
ENDBRANCH  13  16
ENDBRANCH  11  12
BRANCH  11  21
ATOM     21  CB  PHE A   2      -5.767  -0.703  -0.304  1.00  0.00     0.070 C 
BRANCH  21  22
ATOM     22  CG  PHE A   2      -7.130  -0.972   0.280  1.00  0.00    -0.045 A 
ATOM     23  CD1 PHE A   2      -8.251  -1.083  -0.559  1.00  0.00     0.004 A 
ATOM     24  CD2 PHE A   2      -7.303  -1.039   1.673  1.00  0.00     0.004 A 
ATOM     25  CE1 PHE A   2      -9.522  -1.277  -0.013  1.00  0.00     0.000 A 
ATOM     26  CE2 PHE A   2      -8.575  -1.243   2.214  1.00  0.00     0.000 A 
ATOM     27  CZ  PHE A   2      -9.683  -1.367   1.372  1.00  0.00     0.000 A 
ENDBRANCH  21  22
ENDBRANCH  11  21
ENDBRANCH   8  11
ENDBRANCH   6   7
BRANCH   6  28
ATOM     28  CB  HIS A   3      -0.729   2.347   0.432  1.00  0.00     0.093 C 
BRANCH  28  29
ATOM     29  CG  HIS A   3      -0.586   1.834   1.840  1.00  0.00     0.061 A 
ATOM     30  ND1 HIS A   3      -0.187   0.585   2.163  1.00  0.00    -0.242 NA
ATOM     31  CD2 HIS A   3      -0.734   2.585   2.986  1.00  0.00     0.107 A 
ATOM     32  CE1 HIS A   3      -0.128   0.602   3.513  1.00  0.00     0.196 A 
ATOM     33  NE2 HIS A   3      -0.449   1.801   4.035  1.00  0.00    -0.351 N 
ATOM     34  H   UNL     1      -0.463   2.067   5.046  1.00  0.00     0.167 HD
ENDBRANCH  28  29
ENDBRANCH   6  28
ENDBRANCH   3   6
ENDBRANCH   1   2
BRANCH   1  35
ATOM     35  C   LEU A   4       2.633  -0.602  -1.009  1.00  0.00     0.243 C 
ATOM     36  N   ARG A   5       3.236  -1.167   0.165  1.00  0.00    -0.343 N 
ATOM     37  O   LEU A   4       3.239   0.283  -1.674  1.00  0.00    -0.273 OA
ATOM     38  H   UNL     1       2.759  -1.968   0.643  1.00  0.00     0.164 HD
BRANCH  36  39
ATOM     39  CA  ARG A   5       4.545  -0.737   0.665  1.00  0.00     0.171 C 
BRANCH  39  40
ATOM     40  C   ARG A   5       5.603  -1.712   0.229  1.00  0.00     0.243 C 
ATOM     41  N   ASN A   6       6.873  -1.231  -0.238  1.00  0.00    -0.341 N 
ATOM     42  O   ARG A   5       5.386  -2.951   0.319  1.00  0.00    -0.273 OA
ATOM     43  H   UNL     1       7.074  -0.207  -0.169  1.00  0.00     0.164 HD
BRANCH  41  44
ATOM     44  CA  ASN A   6       7.944  -2.124  -0.693  1.00  0.00     0.201 C 
BRANCH  44  45
ATOM     45  C   ASN A   6       8.907  -2.400   0.427  1.00  0.00     0.326 C 
ATOM     46  O   ASN A   6       9.028  -1.595   1.389  1.00  0.00    -0.250 OA
BRANCH  45  47
ATOM     47  OXT ASN A   6       9.700  -3.542   0.377  1.00  0.00    -0.480 OA
ATOM     48  H   UNL     1      10.368  -3.744   1.110  1.00  0.00     0.296 HD
ENDBRANCH  45  47
ENDBRANCH  44  45
BRANCH  44  49
ATOM     49  CB  ASN A   6       8.685  -1.505  -1.888  1.00  0.00     0.136 C 
BRANCH  49  50
ATOM     50  CG  ASN A   6       7.754  -1.297  -3.047  1.00  0.00     0.220 C 
ATOM     51  ND2 ASN A   6       7.353  -2.401  -3.858  1.00  0.00    -0.370 N 
ATOM     52  OD1 ASN A   6       7.292  -0.148  -3.284  1.00  0.00    -0.275 OA
ATOM     53  H   UNL     1       7.724  -3.360  -3.677  1.00  0.00     0.159 HD
ATOM     54  H   UNL     1       6.677  -2.259  -4.640  1.00  0.00     0.159 HD
ENDBRANCH  49  50
ENDBRANCH  44  49
ENDBRANCH  41  44
ENDBRANCH  39  40
BRANCH  39  55
ATOM     55  CB  ARG A   5       4.530  -0.628   2.201  1.00  0.00     0.037 C 
BRANCH  55  56
ATOM     56  CG  ARG A   5       3.472   0.351   2.736  1.00  0.00     0.024 C 
BRANCH  56  57
ATOM     57  CD  ARG A   5       3.796   1.813   2.401  1.00  0.00     0.116 C 
BRANCH  57  58
ATOM     58  NE  ARG A   5       2.854   2.714   3.063  1.00  0.00    -0.357 N 
ATOM     59  CZ  ARG A   5       2.918   3.029   4.461  1.00  0.00     0.185 C 
ATOM     60  NH2 ARG A   5       1.995   3.966   5.019  1.00  0.00    -0.370 N 
ATOM     61  H   UNL     1       2.164   3.226   2.471  1.00  0.00     0.163 HD
ATOM     62  H   UNL     1       2.030   4.215   6.031  1.00  0.00     0.159 HD
ATOM     63  H   UNL     1       1.306   4.461   4.408  1.00  0.00     0.159 HD
BRANCH  59  64
ATOM     64  NH1 ARG A   5       3.809   2.472   5.218  1.00  0.00    -0.270 NA
ATOM     65  H   UNL     1       3.877   2.685   6.238  1.00  0.00     0.191 HD
ENDBRANCH  59  64
ENDBRANCH  57  58
ENDBRANCH  56  57
ENDBRANCH  55  56
ENDBRANCH  39  55
ENDBRANCH  36  39
ENDBRANCH   1  35
BRANCH   1  66
ATOM     66  CB  LEU A   4       1.339  -1.706  -2.867  1.00  0.00     0.038 C 
BRANCH  66  67
ATOM     67  CG  LEU A   4       2.279  -2.934  -2.968  1.00  0.00    -0.015 C 
ATOM     68  CD1 LEU A   4       1.771  -4.122  -2.134  1.00  0.00     0.007 C 
ATOM     69  CD2 LEU A   4       2.428  -3.357  -4.434  1.00  0.00     0.007 C 
ENDBRANCH  66  67
ENDBRANCH   1  66
TORSDOF 26
