REMARK SMILES CC(C)C[C@H](NC(=O)[C@@H](NC(=O)[C@H](CCCNC(=N)N)NC(=O)[C@@H](N)CO)C(C)C)C(=O)N[C@@H](CCCNC(=N)N)C(=O)N[C@@H](CC(N)=O)C(=O)O
REMARK SMILES IDX 7 1 8 2 6 3 9 5 10 6 11 7 12 8 13 10 21 11 22 12 23 13 24 15
REMARK SMILES IDX 25 16 26 19 27 20 14 22 15 23 16 24 17 25 18 26 20 27 19 31
REMARK SMILES IDX 28 33 29 34 30 35 5 36 31 37 33 38 32 39 34 41 42 42 44 43
REMARK SMILES IDX 43 44 45 46 50 47 51 48 52 49 46 51 47 52 48 53 49 54 35 57
REMARK SMILES IDX 36 58 37 59 38 60 39 61 41 62 40 66 4 68 2 69 1 70 3 71
REMARK H PARENT 6 4 10 9 21 14 25 17 25 18 27 21 17 28 20 29 20 30 19 32 33 40
REMARK H PARENT 44 45 52 50 48 55 48 56 38 63 41 64 41 65 40 67
ROOT
ATOM      1  C   VAL A   3       0.941  -0.276   0.880  1.00  0.00     0.243 C 
ATOM      2  O   VAL A   3       0.937  -0.643  -0.329  1.00  0.00    -0.273 OA
ATOM      3  N   LEU A   4      -0.100  -0.708   1.768  1.00  0.00    -0.343 N 
ATOM      4  H   UNL     1      -0.120  -0.311   2.737  1.00  0.00     0.164 HD
ENDROOT
BRANCH   1   5
ATOM      5  CA  VAL A   3       2.011   0.657   1.388  1.00  0.00     0.174 C 
BRANCH   5   6
ATOM      6  N   VAL A   3       3.231   0.543   0.577  1.00  0.00    -0.342 N 
ATOM      7  C   ARG A   2       4.532   0.326   1.148  1.00  0.00     0.243 C 
ATOM      8  O   ARG A   2       4.671   0.202   2.397  1.00  0.00    -0.273 OA
ATOM      9  H   UNL     1       3.161   0.680  -0.458  1.00  0.00     0.164 HD
BRANCH   7  10
ATOM     10  CA  ARG A   2       5.737   0.210   0.254  1.00  0.00     0.171 C 
BRANCH  10  11
ATOM     11  N   ARG A   2       6.801   1.090   0.748  1.00  0.00    -0.343 N 
ATOM     12  C   SER A   1       6.823   2.498   0.455  1.00  0.00     0.239 C 
ATOM     13  O   SER A   1       5.876   3.023  -0.193  1.00  0.00    -0.273 OA
ATOM     14  H   UNL     1       7.536   0.691   1.373  1.00  0.00     0.164 HD
BRANCH  12  15
ATOM     15  CA  SER A   1       7.945   3.380   0.957  1.00  0.00     0.167 C 
BRANCH  15  16
ATOM     16  N   SER A   1       7.858   3.557   2.407  1.00  0.00    -0.318 NA
ATOM     17  H   UNL     1       6.954   4.031   2.630  1.00  0.00     0.119 HD
ATOM     18  H   UNL     1       7.848   2.623   2.878  1.00  0.00     0.119 HD
ENDBRANCH  15  16
BRANCH  15  19
ATOM     19  CB  SER A   1       9.328   2.825   0.577  1.00  0.00     0.184 C 
BRANCH  19  20
ATOM     20  OG  SER A   1       9.420   2.637  -0.811  1.00  0.00    -0.394 OA
ATOM     21  H   UNL     1       9.623   3.523  -1.206  1.00  0.00     0.210 HD
ENDBRANCH  19  20
ENDBRANCH  15  19
ENDBRANCH  12  15
ENDBRANCH  10  11
BRANCH  10  22
ATOM     22  CB  ARG A   2       6.241  -1.246   0.196  1.00  0.00     0.037 C 
BRANCH  22  23
ATOM     23  CG  ARG A   2       5.233  -2.245  -0.411  1.00  0.00     0.024 C 
BRANCH  23  24
ATOM     24  CD  ARG A   2       4.898  -1.979  -1.888  1.00  0.00     0.116 C 
BRANCH  24  25
ATOM     25  NE  ARG A   2       6.108  -1.857  -2.704  1.00  0.00    -0.357 N 
ATOM     26  CZ  ARG A   2       7.029  -2.930  -2.975  1.00  0.00     0.185 C 
ATOM     27  NH2 ARG A   2       8.315  -2.623  -3.513  1.00  0.00    -0.370 N 
ATOM     28  H   UNL     1       6.347  -0.911  -3.073  1.00  0.00     0.163 HD
ATOM     29  H   UNL     1       8.588  -1.631  -3.707  1.00  0.00     0.159 HD
ATOM     30  H   UNL     1       9.003  -3.382  -3.714  1.00  0.00     0.159 HD
BRANCH  26  31
ATOM     31  NH1 ARG A   2       6.716  -4.171  -2.760  1.00  0.00    -0.270 NA
ATOM     32  H   UNL     1       5.791  -4.477  -2.389  1.00  0.00     0.191 HD
ENDBRANCH  26  31
ENDBRANCH  24  25
ENDBRANCH  23  24
ENDBRANCH  22  23
ENDBRANCH  10  22
ENDBRANCH   7  10
ENDBRANCH   5   6
BRANCH   5  33
ATOM     33  CB  VAL A   3       1.503   2.123   1.440  1.00  0.00     0.015 C 
ATOM     34  CG1 VAL A   3       2.533   3.040   2.114  1.00  0.00     0.010 C 
ATOM     35  CG2 VAL A   3       1.121   2.678   0.059  1.00  0.00     0.010 C 
ENDBRANCH   5  33
ENDBRANCH   1   5
BRANCH   3  36
ATOM     36  CA  LEU A   4      -1.248  -1.497   1.309  1.00  0.00     0.171 C 
BRANCH  36  37
ATOM     37  C   LEU A   4      -2.331  -0.570   0.825  1.00  0.00     0.243 C 
ATOM     38  N   ARG A   5      -3.251  -1.016  -0.181  1.00  0.00    -0.343 N 
ATOM     39  O   LEU A   4      -2.458   0.577   1.337  1.00  0.00    -0.273 OA
ATOM     40  H   UNL     1      -3.107  -1.967  -0.586  1.00  0.00     0.164 HD
BRANCH  38  41
ATOM     41  CA  ARG A   5      -4.286  -0.137  -0.737  1.00  0.00     0.171 C 
BRANCH  41  42
ATOM     42  C   ARG A   5      -5.300   0.247   0.308  1.00  0.00     0.243 C 
ATOM     43  N   ASN A   6      -6.025   1.477   0.174  1.00  0.00    -0.341 N 
ATOM     44  O   ARG A   5      -5.552  -0.538   1.264  1.00  0.00    -0.273 OA
ATOM     45  H   UNL     1      -5.775   2.118  -0.612  1.00  0.00     0.164 HD
BRANCH  43  46
ATOM     46  CA  ASN A   6      -7.153   1.817   1.046  1.00  0.00     0.201 C 
BRANCH  46  47
ATOM     47  C   ASN A   6      -8.370   1.034   0.643  1.00  0.00     0.326 C 
ATOM     48  O   ASN A   6      -8.548   0.699  -0.562  1.00  0.00    -0.250 OA
BRANCH  47  49
ATOM     49  OXT ASN A   6      -9.332   0.720   1.600  1.00  0.00    -0.480 OA
ATOM     50  H   UNL     1     -10.162   0.200   1.346  1.00  0.00     0.296 HD
ENDBRANCH  47  49
ENDBRANCH  46  47
BRANCH  46  51
ATOM     51  CB  ASN A   6      -7.465   3.324   0.985  1.00  0.00     0.136 C 
BRANCH  51  52
ATOM     52  CG  ASN A   6      -6.297   4.177   1.396  1.00  0.00     0.220 C 
ATOM     53  ND2 ASN A   6      -6.058   5.424   0.738  1.00  0.00    -0.370 N 
ATOM     54  OD1 ASN A   6      -5.549   3.822   2.351  1.00  0.00    -0.275 OA
ATOM     55  H   UNL     1      -5.248   6.018   1.017  1.00  0.00     0.159 HD
ATOM     56  H   UNL     1      -6.690   5.750  -0.028  1.00  0.00     0.159 HD
ENDBRANCH  51  52
ENDBRANCH  46  51
ENDBRANCH  43  46
ENDBRANCH  41  42
BRANCH  41  57
ATOM     57  CB  ARG A   5      -4.973  -0.769  -1.965  1.00  0.00     0.037 C 
BRANCH  57  58
ATOM     58  CG  ARG A   5      -5.820  -2.016  -1.635  1.00  0.00     0.024 C 
BRANCH  58  59
ATOM     59  CD  ARG A   5      -6.429  -2.657  -2.888  1.00  0.00     0.116 C 
BRANCH  59  60
ATOM     60  NE  ARG A   5      -7.551  -1.861  -3.393  1.00  0.00    -0.357 N 
ATOM     61  CZ  ARG A   5      -7.438  -0.745  -4.298  1.00  0.00     0.185 C 
ATOM     62  NH2 ARG A   5      -8.482   0.230  -4.337  1.00  0.00    -0.370 N 
ATOM     63  H   UNL     1      -8.473  -1.994  -2.915  1.00  0.00     0.163 HD
ATOM     64  H   UNL     1      -8.414   1.055  -4.972  1.00  0.00     0.159 HD
ATOM     65  H   UNL     1      -9.300   0.153  -3.692  1.00  0.00     0.159 HD
BRANCH  61  66
ATOM     66  NH1 ARG A   5      -6.421  -0.606  -5.092  1.00  0.00    -0.270 NA
ATOM     67  H   UNL     1      -5.627  -1.277  -5.147  1.00  0.00     0.191 HD
ENDBRANCH  61  66
ENDBRANCH  59  60
ENDBRANCH  58  59
ENDBRANCH  57  58
ENDBRANCH  41  57
ENDBRANCH  38  41
ENDBRANCH  36  37
BRANCH  36  68
ATOM     68  CB  LEU A   4      -1.796  -2.393   2.443  1.00  0.00     0.038 C 
BRANCH  68  69
ATOM     69  CG  LEU A   4      -0.909  -3.600   2.841  1.00  0.00    -0.015 C 
ATOM     70  CD1 LEU A   4      -0.702  -4.590   1.685  1.00  0.00     0.007 C 
ATOM     71  CD2 LEU A   4       0.435  -3.189   3.455  1.00  0.00     0.007 C 
ENDBRANCH  68  69
ENDBRANCH  36  68
ENDBRANCH   3  36
TORSDOF 30
