REMARK SMILES CC(C)C[C@H](NC(=O)[C@H](C)NC(=O)[C@@H](N)CO)C(=O)N[C@@H](CC(=O)O)C(=O)N[C@@H](CCCNC(=N)N)C(=O)N[C@@H](CC(N)=O)C(=O)O
REMARK SMILES IDX 18 1 19 2 20 3 5 5 6 6 7 7 8 8 9 10 10 11 11 12 12 13 13 14
REMARK SMILES IDX 14 16 15 17 16 20 17 21 4 23 2 24 1 25 3 26 21 27 26 28
REMARK SMILES IDX 28 29 27 30 29 32 37 33 39 34 38 35 40 37 45 38 46 39 47 40
REMARK SMILES IDX 41 42 42 43 43 44 44 45 30 48 31 49 32 50 33 51 34 52 36 53
REMARK SMILES IDX 35 57 22 59 23 60 24 61 25 62
REMARK H PARENT 20 4 6 9 11 15 15 18 15 19 17 22 28 31 39 36 47 41 43 46 43 47
REMARK H PARENT 33 54 36 55 36 56 35 58 25 63
ROOT
ATOM      1  C   LEU A   3      20.062  10.074  -6.438  1.00  0.00     0.243 C 
ATOM      2  O   LEU A   3      20.206   9.176  -5.566  1.00  0.00    -0.273 OA
ATOM      3  N   ASP A   4      20.564   9.899  -7.757  1.00  0.00    -0.342 N 
ATOM      4  H   UNL     1      20.394  10.639  -8.477  1.00  0.00     0.164 HD
ENDROOT
BRANCH   1   5
ATOM      5  CA  LEU A   3      19.319  11.323  -6.123  1.00  0.00     0.171 C 
BRANCH   5   6
ATOM      6  N   LEU A   3      18.065  11.001  -5.489  1.00  0.00    -0.343 N 
ATOM      7  C   ALA A   2      16.873  11.740  -5.726  1.00  0.00     0.242 C 
ATOM      8  O   ALA A   2      16.900  12.784  -6.437  1.00  0.00    -0.273 OA
ATOM      9  H   UNL     1      18.081  10.267  -4.750  1.00  0.00     0.164 HD
BRANCH   7  10
ATOM     10  CA  ALA A   2      15.613  11.293  -5.037  1.00  0.00     0.168 C 
ATOM     11  CB  ALA A   2      15.557   9.762  -4.898  1.00  0.00     0.041 C 
BRANCH  10  12
ATOM     12  N   ALA A   2      14.438  11.733  -5.770  1.00  0.00    -0.343 N 
ATOM     13  C   SER A   1      13.910  13.048  -5.639  1.00  0.00     0.239 C 
ATOM     14  O   SER A   1      14.449  13.865  -4.842  1.00  0.00    -0.273 OA
ATOM     15  H   UNL     1      13.851  11.002  -6.228  1.00  0.00     0.164 HD
BRANCH  13  16
ATOM     16  CA  SER A   1      12.653  13.413  -6.386  1.00  0.00     0.167 C 
BRANCH  16  17
ATOM     17  N   SER A   1      12.468  14.865  -6.381  1.00  0.00    -0.318 NA
ATOM     18  H   UNL     1      11.583  15.093  -6.891  1.00  0.00     0.119 HD
ATOM     19  H   UNL     1      12.303  15.174  -5.395  1.00  0.00     0.119 HD
ENDBRANCH  16  17
BRANCH  16  20
ATOM     20  CB  SER A   1      12.694  12.901  -7.847  1.00  0.00     0.184 C 
BRANCH  20  21
ATOM     21  OG  SER A   1      11.437  13.039  -8.451  1.00  0.00    -0.394 OA
ATOM     22  H   UNL     1      10.858  12.328  -8.069  1.00  0.00     0.210 HD
ENDBRANCH  20  21
ENDBRANCH  16  20
ENDBRANCH  13  16
ENDBRANCH  10  12
ENDBRANCH   7  10
ENDBRANCH   5   6
BRANCH   5  23
ATOM     23  CB  LEU A   3      20.142  12.335  -5.312  1.00  0.00     0.038 C 
BRANCH  23  24
ATOM     24  CG  LEU A   3      20.425  12.202  -3.790  1.00  0.00    -0.015 C 
ATOM     25  CD1 LEU A   3      21.817  11.748  -3.391  1.00  0.00     0.007 C 
ATOM     26  CD2 LEU A   3      19.293  11.876  -2.831  1.00  0.00     0.007 C 
ENDBRANCH  23  24
ENDBRANCH   5  23
ENDBRANCH   1   5
BRANCH   3  27
ATOM     27  CA  ASP A   4      21.346   8.739  -8.143  1.00  0.00     0.182 C 
BRANCH  27  28
ATOM     28  C   ASP A   4      22.711   9.203  -8.522  1.00  0.00     0.243 C 
ATOM     29  N   ARG A   5      23.821   8.708  -7.788  1.00  0.00    -0.343 N 
ATOM     30  O   ASP A   4      22.873  10.029  -9.463  1.00  0.00    -0.273 OA
ATOM     31  H   UNL     1      23.668   7.984  -7.049  1.00  0.00     0.164 HD
BRANCH  29  32
ATOM     32  CA  ARG A   5      25.183   9.118  -8.072  1.00  0.00     0.171 C 
BRANCH  32  33
ATOM     33  C   ARG A   5      25.902   7.968  -8.686  1.00  0.00     0.243 C 
ATOM     34  N   ASN A   6      25.915   7.865 -10.103  1.00  0.00    -0.341 N 
ATOM     35  O   ARG A   5      26.450   7.087  -7.970  1.00  0.00    -0.273 OA
ATOM     36  H   UNL     1      25.492   8.649 -10.651  1.00  0.00     0.164 HD
BRANCH  34  37
ATOM     37  CA  ASN A   6      26.543   6.751 -10.804  1.00  0.00     0.201 C 
BRANCH  37  38
ATOM     38  C   ASN A   6      27.994   6.642 -10.416  1.00  0.00     0.326 C 
ATOM     39  O   ASN A   6      28.795   7.579 -10.677  1.00  0.00    -0.250 OA
BRANCH  38  40
ATOM     40  OXT ASN A   6      28.452   5.498  -9.770  1.00  0.00    -0.480 OA
ATOM     41  H   UNL     1      29.425   5.408  -9.501  1.00  0.00     0.296 HD
ENDBRANCH  38  40
ENDBRANCH  37  38
BRANCH  37  42
ATOM     42  CB  ASN A   6      26.426   6.947 -12.324  1.00  0.00     0.136 C 
BRANCH  42  43
ATOM     43  CG  ASN A   6      25.011   7.181 -12.773  1.00  0.00     0.220 C 
ATOM     44  ND2 ASN A   6      24.754   8.090 -13.834  1.00  0.00    -0.370 N 
ATOM     45  OD1 ASN A   6      24.055   6.560 -12.240  1.00  0.00    -0.275 OA
ATOM     46  H   UNL     1      25.533   8.599 -14.308  1.00  0.00     0.159 HD
ATOM     47  H   UNL     1      23.775   8.258 -14.156  1.00  0.00     0.159 HD
ENDBRANCH  42  43
ENDBRANCH  37  42
ENDBRANCH  34  37
ENDBRANCH  32  33
BRANCH  32  48
ATOM     48  CB  ARG A   5      25.858   9.602  -6.793  1.00  0.00     0.037 C 
BRANCH  48  49
ATOM     49  CG  ARG A   5      25.162  10.858  -6.270  1.00  0.00     0.024 C 
BRANCH  49  50
ATOM     50  CD  ARG A   5      25.838  11.390  -5.014  1.00  0.00     0.116 C 
BRANCH  50  51
ATOM     51  NE  ARG A   5      25.375  10.687  -3.820  1.00  0.00    -0.357 N 
ATOM     52  CZ  ARG A   5      25.468  11.282  -2.526  1.00  0.00     0.185 C 
ATOM     53  NH2 ARG A   5      26.108  12.546  -2.352  1.00  0.00    -0.370 N 
ATOM     54  H   UNL     1      24.890   9.765  -3.912  1.00  0.00     0.163 HD
ATOM     55  H   UNL     1      26.082  13.023  -1.423  1.00  0.00     0.159 HD
ATOM     56  H   UNL     1      26.696  12.982  -3.094  1.00  0.00     0.159 HD
BRANCH  52  57
ATOM     57  NH1 ARG A   5      24.954  10.672  -1.506  1.00  0.00    -0.270 NA
ATOM     58  H   UNL     1      24.996  11.076  -0.544  1.00  0.00     0.191 HD
ENDBRANCH  52  57
ENDBRANCH  50  51
ENDBRANCH  49  50
ENDBRANCH  48  49
ENDBRANCH  32  48
ENDBRANCH  29  32
ENDBRANCH  27  28
BRANCH  27  59
ATOM     59  CB  ASP A   4      20.655   7.999  -9.293  1.00  0.00     0.157 C 
BRANCH  59  60
ATOM     60  CG  ASP A   4      21.425   6.792  -9.753  1.00  0.00     0.305 C 
ATOM     61  OD1 ASP A   4      21.405   6.467 -10.970  1.00  0.00    -0.252 OA
BRANCH  60  62
ATOM     62  OD2 ASP A   4      22.104   5.993  -8.836  1.00  0.00    -0.481 OA
ATOM     63  H   UNL     1      22.613   5.172  -9.139  1.00  0.00     0.296 HD
ENDBRANCH  60  62
ENDBRANCH  59  60
ENDBRANCH  27  59
ENDBRANCH   3  27
TORSDOF 27
