REMARK SMILES C[C@H](NC(=O)[C@H](Cc1ccccc1)NC(=O)[C@@H](N)CO)C(=O)N[C@@H](CC(N)=O)C(=O)N[C@@H](CCCNC(=N)N)C(=O)N[C@@H](CC(N)=O)C(=O)O
REMARK SMILES IDX 21 1 22 2 23 3 2 5 1 6 3 7 4 8 5 9 6 11 14 12 15 13 16 14
REMARK SMILES IDX 17 16 18 17 19 20 20 21 7 23 8 24 9 25 13 26 10 27 12 28
REMARK SMILES IDX 11 29 24 30 29 31 31 32 30 33 32 35 40 36 42 37 41 38 43 40
REMARK SMILES IDX 48 41 49 42 50 43 44 45 45 46 46 47 47 48 33 51 34 52 35 53
REMARK SMILES IDX 36 54 37 55 39 56 38 60 25 62 26 63 27 64 28 65
REMARK H PARENT 23 4 3 10 14 15 18 18 18 19 20 22 31 34 42 39 50 44 46 49
REMARK H PARENT 46 50 36 57 39 58 39 59 38 61 27 66 27 67
ROOT
ATOM      1  C   ALA A   3      20.048  10.096  -6.463  1.00  0.00     0.242 C 
ATOM      2  O   ALA A   3      20.177   9.196  -5.586  1.00  0.00    -0.273 OA
ATOM      3  N   ASN A   4      20.560   9.911  -7.774  1.00  0.00    -0.342 N 
ATOM      4  H   UNL     1      20.392  10.646  -8.499  1.00  0.00     0.164 HD
ENDROOT
BRANCH   1   5
ATOM      5  CA  ALA A   3      19.342  11.371  -6.148  1.00  0.00     0.168 C 
ATOM      6  CB  ALA A   3      20.180  12.244  -5.223  1.00  0.00     0.041 C 
BRANCH   5   7
ATOM      7  N   ALA A   3      18.096  11.057  -5.497  1.00  0.00    -0.343 N 
ATOM      8  C   PHE A   2      16.889  11.751  -5.774  1.00  0.00     0.243 C 
ATOM      9  O   PHE A   2      16.900  12.792  -6.488  1.00  0.00    -0.273 OA
ATOM     10  H   UNL     1      18.188  10.555  -4.587  1.00  0.00     0.164 HD
BRANCH   8  11
ATOM     11  CA  PHE A   2      15.653  11.314  -5.060  1.00  0.00     0.175 C 
BRANCH  11  12
ATOM     12  N   PHE A   2      14.454  11.740  -5.769  1.00  0.00    -0.343 N 
ATOM     13  C   SER A   1      13.915  13.050  -5.636  1.00  0.00     0.239 C 
ATOM     14  O   SER A   1      14.449  13.869  -4.839  1.00  0.00    -0.273 OA
ATOM     15  H   UNL     1      13.862  11.000  -6.207  1.00  0.00     0.164 HD
BRANCH  13  16
ATOM     16  CA  SER A   1      12.655  13.410  -6.383  1.00  0.00     0.167 C 
BRANCH  16  17
ATOM     17  N   SER A   1      12.467  14.862  -6.382  1.00  0.00    -0.318 NA
ATOM     18  H   UNL     1      12.304  15.174  -5.396  1.00  0.00     0.119 HD
ATOM     19  H   UNL     1      11.581  15.087  -6.890  1.00  0.00     0.119 HD
ENDBRANCH  16  17
BRANCH  16  20
ATOM     20  CB  SER A   1      12.695  12.893  -7.842  1.00  0.00     0.184 C 
BRANCH  20  21
ATOM     21  OG  SER A   1      11.440  13.037  -8.449  1.00  0.00    -0.394 OA
ATOM     22  H   UNL     1      10.855  12.333  -8.065  1.00  0.00     0.210 HD
ENDBRANCH  20  21
ENDBRANCH  16  20
ENDBRANCH  13  16
ENDBRANCH  11  12
BRANCH  11  23
ATOM     23  CB  PHE A   2      15.618   9.775  -4.891  1.00  0.00     0.070 C 
BRANCH  23  24
ATOM     24  CG  PHE A   2      14.449   9.289  -4.089  1.00  0.00    -0.045 A 
ATOM     25  CD1 PHE A   2      13.906  10.047  -3.033  1.00  0.00     0.004 A 
ATOM     26  CD2 PHE A   2      13.972   7.990  -4.310  1.00  0.00     0.004 A 
ATOM     27  CE1 PHE A   2      12.870   9.536  -2.261  1.00  0.00     0.000 A 
ATOM     28  CE2 PHE A   2      12.941   7.478  -3.522  1.00  0.00     0.000 A 
ATOM     29  CZ  PHE A   2      12.387   8.253  -2.503  1.00  0.00     0.000 A 
ENDBRANCH  23  24
ENDBRANCH  11  23
ENDBRANCH   8  11
ENDBRANCH   5   7
ENDBRANCH   1   5
BRANCH   3  30
ATOM     30  CA  ASN A   4      21.342   8.746  -8.144  1.00  0.00     0.180 C 
BRANCH  30  31
ATOM     31  C   ASN A   4      22.709   9.203  -8.526  1.00  0.00     0.243 C 
ATOM     32  N   ARG A   5      23.819   8.707  -7.791  1.00  0.00    -0.343 N 
ATOM     33  O   ASN A   4      22.873  10.027  -9.467  1.00  0.00    -0.273 OA
ATOM     34  H   UNL     1      23.665   7.980  -7.055  1.00  0.00     0.164 HD
BRANCH  32  35
ATOM     35  CA  ARG A   5      25.182   9.117  -8.073  1.00  0.00     0.171 C 
BRANCH  35  36
ATOM     36  C   ARG A   5      25.901   7.967  -8.686  1.00  0.00     0.243 C 
ATOM     37  N   ASN A   6      25.915   7.865 -10.103  1.00  0.00    -0.341 N 
ATOM     38  O   ARG A   5      26.449   7.087  -7.970  1.00  0.00    -0.273 OA
ATOM     39  H   UNL     1      25.491   8.648 -10.651  1.00  0.00     0.164 HD
BRANCH  37  40
ATOM     40  CA  ASN A   6      26.544   6.752 -10.805  1.00  0.00     0.201 C 
BRANCH  40  41
ATOM     41  C   ASN A   6      27.994   6.642 -10.415  1.00  0.00     0.326 C 
ATOM     42  O   ASN A   6      28.796   7.579 -10.676  1.00  0.00    -0.250 OA
BRANCH  41  43
ATOM     43  OXT ASN A   6      28.452   5.499  -9.767  1.00  0.00    -0.480 OA
ATOM     44  H   UNL     1      29.424   5.409  -9.497  1.00  0.00     0.296 HD
ENDBRANCH  41  43
ENDBRANCH  40  41
BRANCH  40  45
ATOM     45  CB  ASN A   6      26.430   6.950 -12.325  1.00  0.00     0.136 C 
BRANCH  45  46
ATOM     46  CG  ASN A   6      25.017   7.181 -12.776  1.00  0.00     0.220 C 
ATOM     47  ND2 ASN A   6      24.757   8.092 -13.834  1.00  0.00    -0.370 N 
ATOM     48  OD1 ASN A   6      24.063   6.553 -12.249  1.00  0.00    -0.275 OA
ATOM     49  H   UNL     1      25.534   8.606 -14.305  1.00  0.00     0.159 HD
ATOM     50  H   UNL     1      23.777   8.256 -14.158  1.00  0.00     0.159 HD
ENDBRANCH  45  46
ENDBRANCH  40  45
ENDBRANCH  37  40
ENDBRANCH  35  36
BRANCH  35  51
ATOM     51  CB  ARG A   5      25.857   9.600  -6.794  1.00  0.00     0.037 C 
BRANCH  51  52
ATOM     52  CG  ARG A   5      25.164  10.857  -6.270  1.00  0.00     0.024 C 
BRANCH  52  53
ATOM     53  CD  ARG A   5      25.840  11.389  -5.015  1.00  0.00     0.116 C 
BRANCH  53  54
ATOM     54  NE  ARG A   5      25.377  10.686  -3.820  1.00  0.00    -0.357 N 
ATOM     55  CZ  ARG A   5      25.470  11.282  -2.527  1.00  0.00     0.185 C 
ATOM     56  NH2 ARG A   5      26.109  12.546  -2.352  1.00  0.00    -0.370 N 
ATOM     57  H   UNL     1      24.897   9.761  -3.911  1.00  0.00     0.163 HD
ATOM     58  H   UNL     1      26.084  13.022  -1.423  1.00  0.00     0.159 HD
ATOM     59  H   UNL     1      26.698  12.981  -3.094  1.00  0.00     0.159 HD
BRANCH  55  60
ATOM     60  NH1 ARG A   5      24.956  10.671  -1.506  1.00  0.00    -0.270 NA
ATOM     61  H   UNL     1      24.999  11.075  -0.544  1.00  0.00     0.191 HD
ENDBRANCH  55  60
ENDBRANCH  53  54
ENDBRANCH  52  53
ENDBRANCH  51  52
ENDBRANCH  35  51
ENDBRANCH  32  35
ENDBRANCH  30  31
BRANCH  30  62
ATOM     62  CB  ASN A   4      20.645   7.993  -9.280  1.00  0.00     0.134 C 
BRANCH  62  63
ATOM     63  CG  ASN A   4      21.417   6.791  -9.754  1.00  0.00     0.220 C 
ATOM     64  ND2 ASN A   4      21.835   5.773  -8.843  1.00  0.00    -0.370 N 
ATOM     65  OD1 ASN A   4      21.640   6.650 -10.984  1.00  0.00    -0.275 OA
ATOM     66  H   UNL     1      22.383   4.954  -9.188  1.00  0.00     0.159 HD
ATOM     67  H   UNL     1      21.572   5.809  -7.834  1.00  0.00     0.159 HD
ENDBRANCH  62  63
ENDBRANCH  30  62
ENDBRANCH   3  30
TORSDOF 26
