REMARK SMILES CC(C)C[C@H](NC(=O)[C@H](CCCCN)NC(=O)[C@@H](N)CO)C(=O)NCC(=O)N[C@@H](CCCNC(=N)N)C(=O)N[C@@H](CC(N)=O)C(=O)O
REMARK SMILES IDX 22 1 23 2 24 3 5 5 6 6 7 7 8 8 9 10 15 11 16 12 17 13 18 15
REMARK SMILES IDX 19 16 20 19 21 20 10 22 11 23 12 24 13 25 14 26 4 29 2 30
REMARK SMILES IDX 1 31 3 32 25 33 26 34 28 35 27 36 29 38 37 39 39 40 38 41
REMARK SMILES IDX 40 43 45 44 46 45 47 46 41 48 42 49 43 50 44 51 30 54 31 55
REMARK SMILES IDX 32 56 33 57 34 58 36 59 35 63
REMARK H PARENT 24 4 6 9 15 14 19 17 19 18 21 21 14 27 14 28 28 37 39 42 47 47
REMARK H PARENT 43 52 43 53 33 60 36 61 36 62 35 64
ROOT
ATOM      1  C   LEU A   3      20.067  10.077  -6.446  1.00  0.00     0.243 C 
ATOM      2  O   LEU A   3      20.210   9.174  -5.579  1.00  0.00    -0.273 OA
ATOM      3  N   GLY A   4      20.563   9.906  -7.768  1.00  0.00    -0.345 N 
ATOM      4  H   UNL     1      20.393  10.651  -8.482  1.00  0.00     0.164 HD
ENDROOT
BRANCH   1   5
ATOM      5  CA  LEU A   3      19.330  11.331  -6.129  1.00  0.00     0.171 C 
BRANCH   5   6
ATOM      6  N   LEU A   3      18.083  11.016  -5.489  1.00  0.00    -0.343 N 
ATOM      7  C   LYS A   2      16.881  11.735  -5.738  1.00  0.00     0.243 C 
ATOM      8  O   LYS A   2      16.900  12.778  -6.451  1.00  0.00    -0.273 OA
ATOM      9  H   UNL     1      18.153  10.386  -4.667  1.00  0.00     0.164 HD
BRANCH   7  10
ATOM     10  CA  LYS A   2      15.630  11.290  -5.037  1.00  0.00     0.171 C 
BRANCH  10  11
ATOM     11  N   LYS A   2      14.454  11.735  -5.768  1.00  0.00    -0.343 N 
ATOM     12  C   SER A   1      13.916  13.045  -5.633  1.00  0.00     0.239 C 
ATOM     13  O   SER A   1      14.446  13.862  -4.830  1.00  0.00    -0.273 OA
ATOM     14  H   UNL     1      13.904  11.013  -6.278  1.00  0.00     0.164 HD
BRANCH  12  15
ATOM     15  CA  SER A   1      12.662  13.409  -6.392  1.00  0.00     0.167 C 
BRANCH  15  16
ATOM     16  N   SER A   1      12.455  14.859  -6.399  1.00  0.00    -0.318 NA
ATOM     17  H   UNL     1      12.284  15.185  -5.419  1.00  0.00     0.119 HD
ATOM     18  H   UNL     1      13.317  15.337  -6.752  1.00  0.00     0.119 HD
ENDBRANCH  15  16
BRANCH  15  19
ATOM     19  CB  SER A   1      12.691  12.891  -7.847  1.00  0.00     0.184 C 
BRANCH  19  20
ATOM     20  OG  SER A   1      11.434  13.065  -8.437  1.00  0.00    -0.394 OA
ATOM     21  H   UNL     1      11.535  12.807  -9.391  1.00  0.00     0.210 HD
ENDBRANCH  19  20
ENDBRANCH  15  19
ENDBRANCH  12  15
ENDBRANCH  10  11
BRANCH  10  22
ATOM     22  CB  LYS A   2      15.575   9.745  -4.900  1.00  0.00     0.035 C 
BRANCH  22  23
ATOM     23  CG  LYS A   2      14.385   9.244  -4.074  1.00  0.00     0.004 C 
BRANCH  23  24
ATOM     24  CD  LYS A   2      14.300   9.783  -2.631  1.00  0.00     0.015 C 
BRANCH  24  25
ATOM     25  CE  LYS A   2      15.555   9.543  -1.778  1.00  0.00     0.077 C 
BRANCH  25  26
ATOM     26  NZ  LYS A   2      15.808   8.115  -1.605  1.00  0.00    -0.330 NA
ATOM     27  H   UNL     1      16.521   8.008  -0.848  1.00  0.00     0.118 HD
ATOM     28  H   UNL     1      16.255   7.750  -2.477  1.00  0.00     0.118 HD
ENDBRANCH  25  26
ENDBRANCH  24  25
ENDBRANCH  23  24
ENDBRANCH  22  23
ENDBRANCH  10  22
ENDBRANCH   7  10
ENDBRANCH   5   6
BRANCH   5  29
ATOM     29  CB  LEU A   3      20.153  12.337  -5.313  1.00  0.00     0.038 C 
BRANCH  29  30
ATOM     30  CG  LEU A   3      20.432  12.203  -3.789  1.00  0.00    -0.015 C 
ATOM     31  CD1 LEU A   3      21.822  11.747  -3.388  1.00  0.00     0.007 C 
ATOM     32  CD2 LEU A   3      19.302  11.893  -2.818  1.00  0.00     0.007 C 
ENDBRANCH  29  30
ENDBRANCH   5  29
ENDBRANCH   1   5
BRANCH   3  33
ATOM     33  CA  GLY A   4      21.333   8.752  -8.183  1.00  0.00     0.216 C 
BRANCH  33  34
ATOM     34  C   GLY A   4      22.705   9.202  -8.532  1.00  0.00     0.240 C 
ATOM     35  N   ARG A   5      23.808   8.707  -7.786  1.00  0.00    -0.343 N 
ATOM     36  O   GLY A   4      22.878  10.027  -9.470  1.00  0.00    -0.273 OA
ATOM     37  H   UNL     1      23.645   7.990  -7.042  1.00  0.00     0.164 HD
BRANCH  35  38
ATOM     38  CA  ARG A   5      25.175   9.114  -8.068  1.00  0.00     0.171 C 
BRANCH  38  39
ATOM     39  C   ARG A   5      25.897   7.966  -8.684  1.00  0.00     0.243 C 
ATOM     40  N   ASN A   6      25.915   7.866 -10.101  1.00  0.00    -0.341 N 
ATOM     41  O   ARG A   5      26.448   7.086  -7.969  1.00  0.00    -0.273 OA
ATOM     42  H   UNL     1      25.496   8.652 -10.650  1.00  0.00     0.164 HD
BRANCH  40  43
ATOM     43  CA  ASN A   6      26.543   6.752 -10.803  1.00  0.00     0.201 C 
BRANCH  43  44
ATOM     44  C   ASN A   6      27.993   6.642 -10.416  1.00  0.00     0.326 C 
ATOM     45  O   ASN A   6      28.795   7.579 -10.677  1.00  0.00    -0.250 OA
BRANCH  44  46
ATOM     46  OXT ASN A   6      28.452   5.499  -9.769  1.00  0.00    -0.480 OA
ATOM     47  H   UNL     1      29.425   5.408  -9.501  1.00  0.00     0.296 HD
ENDBRANCH  44  46
ENDBRANCH  43  44
BRANCH  43  48
ATOM     48  CB  ASN A   6      26.424   6.947 -12.323  1.00  0.00     0.136 C 
BRANCH  48  49
ATOM     49  CG  ASN A   6      25.010   7.182 -12.772  1.00  0.00     0.220 C 
ATOM     50  ND2 ASN A   6      24.754   8.089 -13.834  1.00  0.00    -0.370 N 
ATOM     51  OD1 ASN A   6      24.051   6.563 -12.238  1.00  0.00    -0.275 OA
ATOM     52  H   UNL     1      25.534   8.596 -14.309  1.00  0.00     0.159 HD
ATOM     53  H   UNL     1      23.775   8.257 -14.157  1.00  0.00     0.159 HD
ENDBRANCH  48  49
ENDBRANCH  43  48
ENDBRANCH  40  43
ENDBRANCH  38  39
BRANCH  38  54
ATOM     54  CB  ARG A   5      25.852   9.598  -6.791  1.00  0.00     0.037 C 
BRANCH  54  55
ATOM     55  CG  ARG A   5      25.161  10.858  -6.269  1.00  0.00     0.024 C 
BRANCH  55  56
ATOM     56  CD  ARG A   5      25.838  11.390  -5.014  1.00  0.00     0.116 C 
BRANCH  56  57
ATOM     57  NE  ARG A   5      25.375  10.687  -3.820  1.00  0.00    -0.357 N 
ATOM     58  CZ  ARG A   5      25.468  11.282  -2.526  1.00  0.00     0.185 C 
ATOM     59  NH2 ARG A   5      26.108  12.546  -2.352  1.00  0.00    -0.370 N 
ATOM     60  H   UNL     1      24.889   9.765  -3.911  1.00  0.00     0.163 HD
ATOM     61  H   UNL     1      26.697  12.982  -3.094  1.00  0.00     0.159 HD
ATOM     62  H   UNL     1      26.082  13.023  -1.423  1.00  0.00     0.159 HD
BRANCH  58  63
ATOM     63  NH1 ARG A   5      24.954  10.672  -1.506  1.00  0.00    -0.270 NA
ATOM     64  H   UNL     1      24.996  11.077  -0.544  1.00  0.00     0.191 HD
ENDBRANCH  58  63
ENDBRANCH  56  57
ENDBRANCH  55  56
ENDBRANCH  54  55
ENDBRANCH  38  54
ENDBRANCH  35  38
ENDBRANCH  33  34
ENDBRANCH   3  33
TORSDOF 29
