REMARK SMILES CC(C)C[C@H](NC(=O)[C@H](Cc1c[nH]cn1)NC(=O)CNC(=O)[C@@H](N)CO)C(=O)N[C@@H](CCCNC(=N)N)C(=O)N[C@@H](CC(N)=O)C(=O)O
REMARK SMILES IDX 7 1 8 2 6 3 9 5 16 6 17 7 18 8 19 10 20 11 21 12 22 13 23 15
REMARK SMILES IDX 24 16 25 19 26 20 10 22 11 23 15 24 12 25 14 26 13 27 5 29
REMARK SMILES IDX 27 30 29 31 28 32 30 34 38 35 40 36 39 37 41 39 46 40 47 41
REMARK SMILES IDX 48 42 42 44 43 45 44 46 45 47 31 50 32 51 33 52 34 53 35 54
REMARK SMILES IDX 37 55 36 59 4 61 2 62 1 63 3 64
REMARK H PARENT 6 4 16 9 20 14 24 17 24 18 26 21 13 28 29 33 40 38 48 43 44 48
REMARK H PARENT 44 49 34 56 37 57 37 58 36 60
ROOT
ATOM      1  C   HIS A   3      20.048  10.086  -6.453  1.00  0.00     0.243 C 
ATOM      2  O   HIS A   3      20.181   9.175  -5.590  1.00  0.00    -0.273 OA
ATOM      3  N   LEU A   4      20.563   9.921  -7.766  1.00  0.00    -0.342 N 
ATOM      4  H   UNL     1      20.393  10.661  -8.486  1.00  0.00     0.164 HD
ENDROOT
BRANCH   1   5
ATOM      5  CA  HIS A   3      19.317  11.340  -6.121  1.00  0.00     0.177 C 
BRANCH   5   6
ATOM      6  N   HIS A   3      18.039  10.991  -5.529  1.00  0.00    -0.342 N 
ATOM      7  C   GLY A   2      16.869  11.761  -5.739  1.00  0.00     0.240 C 
ATOM      8  O   GLY A   2      16.901  12.807  -6.444  1.00  0.00    -0.273 OA
ATOM      9  H   UNL     1      18.003  10.224  -4.818  1.00  0.00     0.164 HD
BRANCH   7  10
ATOM     10  CA  GLY A   2      15.633  11.330  -5.024  1.00  0.00     0.216 C 
BRANCH  10  11
ATOM     11  N   GLY A   2      14.440  11.726  -5.741  1.00  0.00    -0.346 N 
ATOM     12  C   SER A   1      13.910  13.043  -5.629  1.00  0.00     0.239 C 
ATOM     13  O   SER A   1      14.447  13.868  -4.838  1.00  0.00    -0.273 OA
ATOM     14  H   UNL     1      13.857  10.960  -6.144  1.00  0.00     0.164 HD
BRANCH  12  15
ATOM     15  CA  SER A   1      12.658  13.407  -6.385  1.00  0.00     0.167 C 
BRANCH  15  16
ATOM     16  N   SER A   1      12.456  14.857  -6.404  1.00  0.00    -0.318 NA
ATOM     17  H   UNL     1      12.287  15.192  -5.427  1.00  0.00     0.119 HD
ATOM     18  H   UNL     1      13.318  15.330  -6.763  1.00  0.00     0.119 HD
ENDBRANCH  15  16
BRANCH  15  19
ATOM     19  CB  SER A   1      12.691  12.874  -7.834  1.00  0.00     0.184 C 
BRANCH  19  20
ATOM     20  OG  SER A   1      11.444  13.047  -8.447  1.00  0.00    -0.394 OA
ATOM     21  H   UNL     1      10.839  12.357  -8.066  1.00  0.00     0.210 HD
ENDBRANCH  19  20
ENDBRANCH  15  19
ENDBRANCH  12  15
ENDBRANCH  10  11
ENDBRANCH   7  10
ENDBRANCH   5   6
BRANCH   5  22
ATOM     22  CB  HIS A   3      20.131  12.248  -5.186  1.00  0.00     0.093 C 
BRANCH  22  23
ATOM     23  CG  HIS A   3      20.388  11.648  -3.832  1.00  0.00     0.061 A 
ATOM     24  ND1 HIS A   3      21.498  10.952  -3.513  1.00  0.00    -0.242 NA
ATOM     25  CD2 HIS A   3      19.527  11.676  -2.757  1.00  0.00     0.107 A 
ATOM     26  CE1 HIS A   3      21.286  10.574  -2.234  1.00  0.00     0.196 A 
ATOM     27  NE2 HIS A   3      20.102  10.998  -1.753  1.00  0.00    -0.351 N 
ATOM     28  H   UNL     1      19.710  10.828  -0.801  1.00  0.00     0.167 HD
ENDBRANCH  22  23
ENDBRANCH   5  22
ENDBRANCH   1   5
BRANCH   3  29
ATOM     29  CA  LEU A   4      21.348   8.760  -8.138  1.00  0.00     0.171 C 
BRANCH  29  30
ATOM     30  C   LEU A   4      22.713   9.217  -8.519  1.00  0.00     0.243 C 
ATOM     31  N   ARG A   5      23.822   8.720  -7.785  1.00  0.00    -0.343 N 
ATOM     32  O   LEU A   4      22.876  10.033  -9.467  1.00  0.00    -0.273 OA
ATOM     33  H   UNL     1      23.667   8.030  -7.015  1.00  0.00     0.164 HD
BRANCH  31  34
ATOM     34  CA  ARG A   5      25.185   9.122  -8.073  1.00  0.00     0.171 C 
BRANCH  34  35
ATOM     35  C   ARG A   5      25.900   7.968  -8.685  1.00  0.00     0.243 C 
ATOM     36  N   ASN A   6      25.913   7.864 -10.102  1.00  0.00    -0.341 N 
ATOM     37  O   ARG A   5      26.447   7.087  -7.969  1.00  0.00    -0.273 OA
ATOM     38  H   UNL     1      25.489   8.647 -10.651  1.00  0.00     0.164 HD
BRANCH  36  39
ATOM     39  CA  ASN A   6      26.542   6.751 -10.804  1.00  0.00     0.201 C 
BRANCH  39  40
ATOM     40  C   ASN A   6      27.993   6.642 -10.416  1.00  0.00     0.326 C 
ATOM     41  O   ASN A   6      28.794   7.579 -10.677  1.00  0.00    -0.250 OA
BRANCH  40  42
ATOM     42  OXT ASN A   6      28.451   5.499  -9.768  1.00  0.00    -0.480 OA
ATOM     43  H   UNL     1      29.424   5.409  -9.500  1.00  0.00     0.296 HD
ENDBRANCH  40  42
ENDBRANCH  39  40
BRANCH  39  44
ATOM     44  CB  ASN A   6      26.424   6.946 -12.323  1.00  0.00     0.136 C 
BRANCH  44  45
ATOM     45  CG  ASN A   6      25.010   7.180 -12.773  1.00  0.00     0.220 C 
ATOM     46  ND2 ASN A   6      24.753   8.090 -13.833  1.00  0.00    -0.370 N 
ATOM     47  OD1 ASN A   6      24.053   6.558 -12.243  1.00  0.00    -0.275 OA
ATOM     48  H   UNL     1      23.775   8.258 -14.156  1.00  0.00     0.159 HD
ATOM     49  H   UNL     1      25.533   8.600 -14.306  1.00  0.00     0.159 HD
ENDBRANCH  44  45
ENDBRANCH  39  44
ENDBRANCH  36  39
ENDBRANCH  34  35
BRANCH  34  50
ATOM     50  CB  ARG A   5      25.863   9.605  -6.796  1.00  0.00     0.037 C 
BRANCH  50  51
ATOM     51  CG  ARG A   5      25.166  10.861  -6.271  1.00  0.00     0.024 C 
BRANCH  51  52
ATOM     52  CD  ARG A   5      25.840  11.391  -5.014  1.00  0.00     0.116 C 
BRANCH  52  53
ATOM     53  NE  ARG A   5      25.376  10.685  -3.823  1.00  0.00    -0.357 N 
ATOM     54  CZ  ARG A   5      25.468  11.279  -2.527  1.00  0.00     0.185 C 
ATOM     55  NH2 ARG A   5      26.104  12.543  -2.350  1.00  0.00    -0.370 N 
ATOM     56  H   UNL     1      24.898   9.760  -3.921  1.00  0.00     0.163 HD
ATOM     57  H   UNL     1      26.082  13.007  -1.415  1.00  0.00     0.159 HD
ATOM     58  H   UNL     1      26.688  12.986  -3.091  1.00  0.00     0.159 HD
BRANCH  54  59
ATOM     59  NH1 ARG A   5      24.964  10.676  -1.498  1.00  0.00    -0.270 NA
ATOM     60  H   UNL     1      24.490   9.749  -1.581  1.00  0.00     0.191 HD
ENDBRANCH  54  59
ENDBRANCH  52  53
ENDBRANCH  51  52
ENDBRANCH  50  51
ENDBRANCH  34  50
ENDBRANCH  31  34
ENDBRANCH  29  30
BRANCH  29  61
ATOM     61  CB  LEU A   4      20.654   8.000  -9.271  1.00  0.00     0.038 C 
BRANCH  61  62
ATOM     62  CG  LEU A   4      21.448   6.772  -9.768  1.00  0.00    -0.015 C 
ATOM     63  CD1 LEU A   4      21.762   5.779  -8.639  1.00  0.00     0.007 C 
ATOM     64  CD2 LEU A   4      20.661   6.068 -10.877  1.00  0.00     0.007 C 
ENDBRANCH  61  62
ENDBRANCH  29  61
ENDBRANCH   3  29
TORSDOF 26
