REMARK SMILES CC(C)C[C@H](NC(=O)[C@H](C)NC(=O)[C@H](Cc1ccccc1)NC(=O)[C@@H](N)CO)C(=O)N[C@@H](Cc1c[nH]cn1)C(=O)N[C@@H](CC(N)=O)C(=O)O
REMARK SMILES IDX 7 1 8 2 6 3 9 5 10 6 11 7 12 8 13 9 14 11 22 12 23 13 24 14
REMARK SMILES IDX 25 16 26 17 27 20 28 21 15 23 16 24 17 25 21 26 18 27 20 28
REMARK SMILES IDX 19 29 5 30 29 31 31 32 30 33 32 35 39 36 41 37 40 38 42 40
REMARK SMILES IDX 47 41 48 42 49 43 43 45 44 46 45 47 46 48 33 51 34 52 38 53
REMARK SMILES IDX 35 54 37 55 36 56 4 58 2 59 1 60 3 61
REMARK H PARENT 6 4 11 10 22 15 26 18 26 19 28 22 31 34 41 39 49 44 45 49
REMARK H PARENT 45 50 36 57
ROOT
ATOM      1  C   ALA A   3       1.069  -1.164   0.133  1.00  0.00     0.242 C 
ATOM      2  O   ALA A   3       0.903  -0.245   0.982  1.00  0.00    -0.273 OA
ATOM      3  N   LEU A   4       0.342  -1.144  -1.105  1.00  0.00    -0.343 N 
ATOM      4  H   UNL     1       0.592  -1.854  -1.828  1.00  0.00     0.164 HD
ENDROOT
BRANCH   1   5
ATOM      5  CA  ALA A   3       1.988  -2.314   0.449  1.00  0.00     0.168 C 
ATOM      6  CB  ALA A   3       1.269  -3.315   1.356  1.00  0.00     0.041 C 
BRANCH   5   7
ATOM      7  N   ALA A   3       3.208  -1.820   1.093  1.00  0.00    -0.343 N 
ATOM      8  C   PHE A   2       4.228  -1.128   0.358  1.00  0.00     0.243 C 
ATOM      9  O   PHE A   2       4.142  -1.021  -0.898  1.00  0.00    -0.273 OA
ATOM     10  H   UNL     1       3.314  -1.915   2.129  1.00  0.00     0.164 HD
BRANCH   8  11
ATOM     11  CA  PHE A   2       5.371  -0.475   1.085  1.00  0.00     0.175 C 
BRANCH  11  12
ATOM     12  N   PHE A   2       6.620  -0.695   0.348  1.00  0.00    -0.343 N 
ATOM     13  C   SER A   1       7.540  -1.746   0.678  1.00  0.00     0.239 C 
ATOM     14  O   SER A   1       7.267  -2.564   1.599  1.00  0.00    -0.273 OA
ATOM     15  H   UNL     1       6.798  -0.126  -0.511  1.00  0.00     0.164 HD
BRANCH  13  16
ATOM     16  CA  SER A   1       8.823  -1.899  -0.105  1.00  0.00     0.167 C 
BRANCH  16  17
ATOM     17  N   SER A   1       9.968  -2.086   0.791  1.00  0.00    -0.318 NA
ATOM     18  H   UNL     1      10.016  -1.273   1.450  1.00  0.00     0.119 HD
ATOM     19  H   UNL     1       9.828  -2.951   1.366  1.00  0.00     0.119 HD
ENDBRANCH  16  17
BRANCH  16  20
ATOM     20  CB  SER A   1       8.726  -3.076  -1.088  1.00  0.00     0.184 C 
BRANCH  20  21
ATOM     21  OG  SER A   1       7.686  -2.872  -2.006  1.00  0.00    -0.394 OA
ATOM     22  H   UNL     1       8.001  -2.182  -2.647  1.00  0.00     0.210 HD
ENDBRANCH  20  21
ENDBRANCH  16  20
ENDBRANCH  13  16
ENDBRANCH  11  12
BRANCH  11  23
ATOM     23  CB  PHE A   2       5.098   1.030   1.245  1.00  0.00     0.070 C 
BRANCH  23  24
ATOM     24  CG  PHE A   2       6.192   1.699   2.039  1.00  0.00    -0.045 A 
ATOM     25  CD1 PHE A   2       7.249   2.355   1.384  1.00  0.00     0.004 A 
ATOM     26  CD2 PHE A   2       6.196   1.619   3.442  1.00  0.00     0.004 A 
ATOM     27  CE1 PHE A   2       8.282   2.939   2.124  1.00  0.00     0.000 A 
ATOM     28  CE2 PHE A   2       7.231   2.203   4.178  1.00  0.00     0.000 A 
ATOM     29  CZ  PHE A   2       8.273   2.862   3.520  1.00  0.00     0.000 A 
ENDBRANCH  23  24
ENDBRANCH  11  23
ENDBRANCH   8  11
ENDBRANCH   5   7
ENDBRANCH   1   5
BRANCH   3  30
ATOM     30  CA  LEU A   4      -0.637  -0.095  -1.421  1.00  0.00     0.171 C 
BRANCH  30  31
ATOM     31  C   LEU A   4      -1.806  -0.122  -0.468  1.00  0.00     0.243 C 
ATOM     32  N   HIS A   5      -2.628   1.045  -0.319  1.00  0.00    -0.342 N 
ATOM     33  O   LEU A   4      -2.085  -1.181   0.159  1.00  0.00    -0.273 OA
ATOM     34  H   UNL     1      -2.312   1.935  -0.770  1.00  0.00     0.164 HD
BRANCH  32  35
ATOM     35  CA  HIS A   5      -3.898   1.043   0.415  1.00  0.00     0.177 C 
BRANCH  35  36
ATOM     36  C   HIS A   5      -5.027   1.428  -0.510  1.00  0.00     0.243 C 
ATOM     37  N   ASN A   6      -6.327   0.843  -0.339  1.00  0.00    -0.340 N 
ATOM     38  O   HIS A   5      -4.840   2.304  -1.401  1.00  0.00    -0.273 OA
ATOM     39  H   UNL     1      -6.460   0.140   0.423  1.00  0.00     0.164 HD
BRANCH  37  40
ATOM     40  CA  ASN A   6      -7.466   1.208  -1.189  1.00  0.00     0.201 C 
BRANCH  40  41
ATOM     41  C   ASN A   6      -7.905   2.615  -0.878  1.00  0.00     0.326 C 
ATOM     42  O   ASN A   6      -8.192   2.946   0.305  1.00  0.00    -0.250 OA
BRANCH  41  43
ATOM     43  OXT ASN A   6      -8.012   3.549  -1.904  1.00  0.00    -0.480 OA
ATOM     44  H   UNL     1      -8.312   4.496  -1.712  1.00  0.00     0.296 HD
ENDBRANCH  41  43
ENDBRANCH  40  41
BRANCH  40  45
ATOM     45  CB  ASN A   6      -8.626   0.214  -0.985  1.00  0.00     0.136 C 
BRANCH  45  46
ATOM     46  CG  ASN A   6      -9.762   0.487  -1.927  1.00  0.00     0.220 C 
ATOM     47  ND2 ASN A   6     -10.847   1.326  -1.526  1.00  0.00    -0.370 N 
ATOM     48  OD1 ASN A   6      -9.741   0.003  -3.091  1.00  0.00    -0.275 OA
ATOM     49  H   UNL     1     -11.621   1.541  -2.192  1.00  0.00     0.159 HD
ATOM     50  H   UNL     1     -10.875   1.740  -0.568  1.00  0.00     0.159 HD
ENDBRANCH  45  46
ENDBRANCH  40  45
ENDBRANCH  37  40
ENDBRANCH  35  36
BRANCH  35  51
ATOM     51  CB  HIS A   5      -3.803   2.009   1.605  1.00  0.00     0.093 C 
BRANCH  51  52
ATOM     52  CG  HIS A   5      -5.013   1.924   2.487  1.00  0.00     0.061 A 
ATOM     53  ND1 HIS A   5      -6.003   2.837   2.495  1.00  0.00    -0.242 NA
ATOM     54  CD2 HIS A   5      -5.324   0.885   3.336  1.00  0.00     0.107 A 
ATOM     55  CE1 HIS A   5      -6.901   2.333   3.368  1.00  0.00     0.196 A 
ATOM     56  NE2 HIS A   5      -6.516   1.153   3.890  1.00  0.00    -0.351 N 
ATOM     57  H   UNL     1      -7.039   0.564   4.575  1.00  0.00     0.167 HD
ENDBRANCH  51  52
ENDBRANCH  35  51
ENDBRANCH  32  35
ENDBRANCH  30  31
BRANCH  30  58
ATOM     58  CB  LEU A   4      -1.098  -0.169  -2.900  1.00  0.00     0.038 C 
BRANCH  58  59
ATOM     59  CG  LEU A   4      -2.212  -1.200  -3.228  1.00  0.00    -0.015 C 
ATOM     60  CD1 LEU A   4      -1.768  -2.649  -2.991  1.00  0.00     0.007 C 
ATOM     61  CD2 LEU A   4      -2.664  -1.030  -4.685  1.00  0.00     0.007 C 
ENDBRANCH  58  59
ENDBRANCH  30  58
ENDBRANCH   3  30
TORSDOF 23
