REMARK SMILES CC(C)C[C@H](NC(=O)[C@H](Cc1ccccc1)NC(=O)[C@@H](N)CO)C(=O)N[C@@H](CCCCN)C(=O)NCC(=O)N[C@@H](CC(N)=O)C(=O)O
REMARK SMILES IDX 24 1 25 2 26 3 5 5 6 6 7 7 8 8 9 10 17 11 18 12 19 13 20 15
REMARK SMILES IDX 21 16 22 19 23 20 10 22 11 23 12 24 16 25 13 26 15 27 14 28
REMARK SMILES IDX 4 29 2 30 1 31 3 32 27 33 33 34 35 35 34 36 36 38 37 39
REMARK SMILES IDX 39 40 38 41 40 43 45 44 46 45 47 46 41 48 42 49 43 50 44 51
REMARK SMILES IDX 28 54 29 55 30 56 31 57 32 58
REMARK H PARENT 26 4 6 9 17 14 21 17 21 18 23 21 35 37 39 42 47 47 43 52 43 53
REMARK H PARENT 32 59 32 60
ROOT
ATOM      1  C   LEU A   3      20.052  10.088  -6.477  1.00  0.00     0.243 C 
ATOM      2  O   LEU A   3      20.160   9.161  -5.625  1.00  0.00    -0.273 OA
ATOM      3  N   LYS A   4      20.574   9.926  -7.784  1.00  0.00    -0.343 N 
ATOM      4  H   UNL     1      20.415  10.669  -8.503  1.00  0.00     0.164 HD
ENDROOT
BRANCH   1   5
ATOM      5  CA  LEU A   3      19.338  11.356  -6.146  1.00  0.00     0.171 C 
BRANCH   5   6
ATOM      6  N   LEU A   3      18.082  11.021  -5.538  1.00  0.00    -0.343 N 
ATOM      7  C   PHE A   2      16.885  11.746  -5.775  1.00  0.00     0.243 C 
ATOM      8  O   PHE A   2      16.904  12.796  -6.474  1.00  0.00    -0.273 OA
ATOM      9  H   UNL     1      18.154  10.388  -4.718  1.00  0.00     0.164 HD
BRANCH   7  10
ATOM     10  CA  PHE A   2      15.651  11.313  -5.056  1.00  0.00     0.175 C 
BRANCH  10  11
ATOM     11  N   PHE A   2      14.454  11.740  -5.767  1.00  0.00    -0.343 N 
ATOM     12  C   SER A   1      13.915  13.050  -5.637  1.00  0.00     0.239 C 
ATOM     13  O   SER A   1      14.444  13.870  -4.836  1.00  0.00    -0.273 OA
ATOM     14  H   UNL     1      13.868  11.000  -6.211  1.00  0.00     0.164 HD
BRANCH  12  15
ATOM     15  CA  SER A   1      12.662  13.410  -6.389  1.00  0.00     0.167 C 
BRANCH  15  16
ATOM     16  N   SER A   1      12.472  14.862  -6.376  1.00  0.00    -0.318 NA
ATOM     17  H   UNL     1      13.202  15.317  -6.972  1.00  0.00     0.119 HD
ATOM     18  H   UNL     1      11.539  15.087  -6.794  1.00  0.00     0.119 HD
ENDBRANCH  15  16
BRANCH  15  19
ATOM     19  CB  SER A   1      12.687  12.878  -7.844  1.00  0.00     0.184 C 
BRANCH  19  20
ATOM     20  OG  SER A   1      11.437  13.047  -8.451  1.00  0.00    -0.394 OA
ATOM     21  H   UNL     1      10.831  12.368  -8.054  1.00  0.00     0.210 HD
ENDBRANCH  19  20
ENDBRANCH  15  19
ENDBRANCH  12  15
ENDBRANCH  10  11
BRANCH  10  22
ATOM     22  CB  PHE A   2      15.609   9.774  -4.880  1.00  0.00     0.070 C 
BRANCH  22  23
ATOM     23  CG  PHE A   2      14.435   9.292  -4.091  1.00  0.00    -0.045 A 
ATOM     24  CD1 PHE A   2      13.898  10.048  -3.033  1.00  0.00     0.004 A 
ATOM     25  CD2 PHE A   2      13.964   7.991  -4.310  1.00  0.00     0.004 A 
ATOM     26  CE1 PHE A   2      12.866   9.535  -2.258  1.00  0.00     0.000 A 
ATOM     27  CE2 PHE A   2      12.937   7.476  -3.520  1.00  0.00     0.000 A 
ATOM     28  CZ  PHE A   2      12.384   8.251  -2.500  1.00  0.00     0.000 A 
ENDBRANCH  22  23
ENDBRANCH  10  22
ENDBRANCH   7  10
ENDBRANCH   5   6
BRANCH   5  29
ATOM     29  CB  LEU A   3      20.162  12.254  -5.215  1.00  0.00     0.038 C 
BRANCH  29  30
ATOM     30  CG  LEU A   3      20.414  11.680  -3.791  1.00  0.00    -0.015 C 
ATOM     31  CD1 LEU A   3      21.815  12.068  -3.315  1.00  0.00     0.007 C 
ATOM     32  CD2 LEU A   3      19.366  12.170  -2.780  1.00  0.00     0.007 C 
ENDBRANCH  29  30
ENDBRANCH   5  29
ENDBRANCH   1   5
BRANCH   3  33
ATOM     33  CA  LYS A   4      21.358   8.764  -8.149  1.00  0.00     0.171 C 
BRANCH  33  34
ATOM     34  C   LYS A   4      22.729   9.219  -8.518  1.00  0.00     0.243 C 
ATOM     35  N   GLY A   5      23.832   8.753  -7.750  1.00  0.00    -0.345 N 
ATOM     36  O   LYS A   4      22.900  10.026  -9.472  1.00  0.00    -0.273 OA
ATOM     37  H   UNL     1      23.670   8.091  -6.958  1.00  0.00     0.164 HD
BRANCH  35  38
ATOM     38  CA  GLY A   5      25.205   9.124  -8.035  1.00  0.00     0.216 C 
BRANCH  38  39
ATOM     39  C   GLY A   5      25.895   7.974  -8.675  1.00  0.00     0.240 C 
ATOM     40  N   ASN A   6      25.905   7.875 -10.094  1.00  0.00    -0.341 N 
ATOM     41  O   GLY A   5      26.450   7.094  -7.964  1.00  0.00    -0.273 OA
ATOM     42  H   UNL     1      25.480   8.661 -10.636  1.00  0.00     0.164 HD
BRANCH  40  43
ATOM     43  CA  ASN A   6      26.536   6.760 -10.798  1.00  0.00     0.201 C 
BRANCH  43  44
ATOM     44  C   ASN A   6      27.987   6.647 -10.411  1.00  0.00     0.326 C 
ATOM     45  O   ASN A   6      28.793   7.579 -10.677  1.00  0.00    -0.250 OA
BRANCH  44  46
ATOM     46  OXT ASN A   6      28.441   5.504  -9.760  1.00  0.00    -0.480 OA
ATOM     47  H   UNL     1      29.414   5.411  -9.492  1.00  0.00     0.296 HD
ENDBRANCH  44  46
ENDBRANCH  43  44
BRANCH  43  48
ATOM     48  CB  ASN A   6      26.422   6.955 -12.318  1.00  0.00     0.136 C 
BRANCH  48  49
ATOM     49  CG  ASN A   6      25.009   7.184 -12.772  1.00  0.00     0.220 C 
ATOM     50  ND2 ASN A   6      24.752   8.091 -13.834  1.00  0.00    -0.370 N 
ATOM     51  OD1 ASN A   6      24.052   6.558 -12.243  1.00  0.00    -0.275 OA
ATOM     52  H   UNL     1      23.774   8.254 -14.161  1.00  0.00     0.159 HD
ATOM     53  H   UNL     1      25.531   8.602 -14.305  1.00  0.00     0.159 HD
ENDBRANCH  48  49
ENDBRANCH  43  48
ENDBRANCH  40  43
ENDBRANCH  38  39
ENDBRANCH  35  38
ENDBRANCH  33  34
BRANCH  33  54
ATOM     54  CB  LYS A   4      20.666   8.009  -9.287  1.00  0.00     0.035 C 
BRANCH  54  55
ATOM     55  CG  LYS A   4      21.444   6.770  -9.762  1.00  0.00     0.004 C 
BRANCH  55  56
ATOM     56  CD  LYS A   4      21.779   5.758  -8.653  1.00  0.00     0.015 C 
BRANCH  56  57
ATOM     57  CE  LYS A   4      20.534   5.195  -7.956  1.00  0.00     0.077 C 
BRANCH  57  58
ATOM     58  NZ  LYS A   4      20.915   4.132  -7.031  1.00  0.00    -0.330 NA
ATOM     59  H   UNL     1      20.056   3.837  -6.514  1.00  0.00     0.118 HD
ATOM     60  H   UNL     1      21.221   3.303  -7.592  1.00  0.00     0.118 HD
ENDBRANCH  57  58
ENDBRANCH  56  57
ENDBRANCH  55  56
ENDBRANCH  54  55
ENDBRANCH  33  54
ENDBRANCH   3  33
TORSDOF 26
