REMARK SMILES CC(C)C[C@H](NC(=O)[C@H](Cc1ccccc1)NC(=O)[C@H](CCCCN)NC(=O)[C@@H](N)CO)C(=O)N[C@@H](CCCNC(=N)N)C(=O)N[C@@H](CC(N)=O)C(=O)O
REMARK SMILES IDX 7 1 8 2 6 3 9 5 17 6 18 7 19 8 20 10 26 11 27 12 28 13 29 15
REMARK SMILES IDX 30 16 31 19 32 20 21 22 22 23 23 24 24 25 25 26 10 29 11 30
REMARK SMILES IDX 12 31 16 32 13 33 15 34 14 35 5 36 33 37 35 38 34 39 36 41
REMARK SMILES IDX 44 42 46 43 45 44 47 46 52 47 53 48 54 49 48 51 49 52 50 53
REMARK SMILES IDX 51 54 37 57 38 58 39 59 40 60 41 61 43 62 42 66 4 68 2 69
REMARK SMILES IDX 1 70 3 71
REMARK H PARENT 6 4 17 9 26 14 30 17 30 18 32 21 25 27 25 28 35 40 46 45 54 50
REMARK H PARENT 50 55 50 56 40 63 43 64 43 65 42 67
ROOT
ATOM      1  C   PHE A   3       0.670  -0.349  -0.003  1.00  0.00     0.243 C 
ATOM      2  O   PHE A   3       0.578  -1.476  -0.563  1.00  0.00    -0.273 OA
ATOM      3  N   LEU A   4      -0.391   0.130   0.837  1.00  0.00    -0.343 N 
ATOM      4  H   UNL     1      -0.340   1.114   1.190  1.00  0.00     0.164 HD
ENDROOT
BRANCH   1   5
ATOM      5  CA  PHE A   3       1.870   0.529  -0.261  1.00  0.00     0.175 C 
BRANCH   5   6
ATOM      6  N   PHE A   3       3.104  -0.262  -0.331  1.00  0.00    -0.342 N 
ATOM      7  C   LYS A   2       4.394   0.323  -0.103  1.00  0.00     0.243 C 
ATOM      8  O   LYS A   2       4.480   1.486   0.378  1.00  0.00    -0.273 OA
ATOM      9  H   UNL     1       3.068  -1.242  -0.690  1.00  0.00     0.164 HD
BRANCH   7  10
ATOM     10  CA  LYS A   2       5.642  -0.478  -0.397  1.00  0.00     0.171 C 
BRANCH  10  11
ATOM     11  N   LYS A   2       6.771   0.386  -0.767  1.00  0.00    -0.343 N 
ATOM     12  C   SER A   1       7.836  -0.087  -1.616  1.00  0.00     0.239 C 
ATOM     13  O   SER A   1       7.772  -1.248  -2.110  1.00  0.00    -0.273 OA
ATOM     14  H   UNL     1       6.814   1.350  -0.366  1.00  0.00     0.164 HD
BRANCH  12  15
ATOM     15  CA  SER A   1       9.058   0.751  -1.932  1.00  0.00     0.167 C 
BRANCH  15  16
ATOM     16  N   SER A   1       8.881   2.174  -1.625  1.00  0.00    -0.318 NA
ATOM     17  H   UNL     1       8.000   2.522  -2.065  1.00  0.00     0.119 HD
ATOM     18  H   UNL     1       8.817   2.318  -0.589  1.00  0.00     0.119 HD
ENDBRANCH  15  16
BRANCH  15  19
ATOM     19  CB  SER A   1      10.290   0.190  -1.201  1.00  0.00     0.184 C 
BRANCH  19  20
ATOM     20  OG  SER A   1      11.432   0.936  -1.529  1.00  0.00    -0.394 OA
ATOM     21  H   UNL     1      11.659   0.710  -2.470  1.00  0.00     0.210 HD
ENDBRANCH  19  20
ENDBRANCH  15  19
ENDBRANCH  12  15
ENDBRANCH  10  11
BRANCH  10  22
ATOM     22  CB  LYS A   2       6.007  -1.421   0.773  1.00  0.00     0.035 C 
BRANCH  22  23
ATOM     23  CG  LYS A   2       6.335  -0.728   2.115  1.00  0.00     0.004 C 
BRANCH  23  24
ATOM     24  CD  LYS A   2       7.812  -0.303   2.226  1.00  0.00     0.015 C 
BRANCH  24  25
ATOM     25  CE  LYS A   2       8.133   0.358   3.578  1.00  0.00     0.077 C 
BRANCH  25  26
ATOM     26  NZ  LYS A   2       8.111  -0.591   4.692  1.00  0.00    -0.330 NA
ATOM     27  H   UNL     1       8.652  -1.450   4.437  1.00  0.00     0.118 HD
ATOM     28  H   UNL     1       7.124  -0.866   4.898  1.00  0.00     0.118 HD
ENDBRANCH  25  26
ENDBRANCH  24  25
ENDBRANCH  23  24
ENDBRANCH  22  23
ENDBRANCH  10  22
ENDBRANCH   7  10
ENDBRANCH   5   6
BRANCH   5  29
ATOM     29  CB  PHE A   3       1.685   1.380  -1.534  1.00  0.00     0.070 C 
BRANCH  29  30
ATOM     30  CG  PHE A   3       1.689   0.552  -2.797  1.00  0.00    -0.045 A 
ATOM     31  CD1 PHE A   3       0.485   0.072  -3.343  1.00  0.00     0.004 A 
ATOM     32  CD2 PHE A   3       2.904   0.236  -3.430  1.00  0.00     0.004 A 
ATOM     33  CE1 PHE A   3       0.497  -0.708  -4.503  1.00  0.00     0.000 A 
ATOM     34  CE2 PHE A   3       2.912  -0.538  -4.594  1.00  0.00     0.000 A 
ATOM     35  CZ  PHE A   3       1.711  -1.015  -5.125  1.00  0.00     0.000 A 
ENDBRANCH  29  30
ENDBRANCH   5  29
ENDBRANCH   1   5
BRANCH   3  36
ATOM     36  CA  LEU A   4      -1.600  -0.648   1.134  1.00  0.00     0.171 C 
BRANCH  36  37
ATOM     37  C   LEU A   4      -2.764  -0.099   0.340  1.00  0.00     0.243 C 
ATOM     38  N   ARG A   5      -4.103  -0.553   0.603  1.00  0.00    -0.343 N 
ATOM     39  O   LEU A   4      -2.551   0.719  -0.596  1.00  0.00    -0.273 OA
ATOM     40  H   UNL     1      -4.229  -1.389   1.216  1.00  0.00     0.164 HD
BRANCH  38  41
ATOM     41  CA  ARG A   5      -5.326   0.080   0.085  1.00  0.00     0.171 C 
BRANCH  41  42
ATOM     42  C   ARG A   5      -5.567  -0.283  -1.360  1.00  0.00     0.243 C 
ATOM     43  N   ASN A   6      -6.909  -0.291  -1.873  1.00  0.00    -0.341 N 
ATOM     44  O   ARG A   5      -4.597  -0.544  -2.125  1.00  0.00    -0.273 OA
ATOM     45  H   UNL     1      -7.676   0.080  -1.266  1.00  0.00     0.164 HD
BRANCH  43  46
ATOM     46  CA  ASN A   6      -7.234  -0.706  -3.243  1.00  0.00     0.201 C 
BRANCH  46  47
ATOM     47  C   ASN A   6      -7.164   0.472  -4.167  1.00  0.00     0.326 C 
ATOM     48  O   ASN A   6      -7.537   1.610  -3.776  1.00  0.00    -0.250 OA
BRANCH  47  49
ATOM     49  OXT ASN A   6      -6.749   0.297  -5.485  1.00  0.00    -0.480 OA
ATOM     50  H   UNL     1      -6.720   1.083  -6.127  1.00  0.00     0.296 HD
ENDBRANCH  47  49
ENDBRANCH  46  47
BRANCH  46  51
ATOM     51  CB  ASN A   6      -8.634  -1.334  -3.300  1.00  0.00     0.136 C 
BRANCH  51  52
ATOM     52  CG  ASN A   6      -8.709  -2.553  -2.428  1.00  0.00     0.220 C 
ATOM     53  ND2 ASN A   6      -8.226  -3.810  -2.902  1.00  0.00    -0.370 N 
ATOM     54  OD1 ASN A   6      -9.129  -2.454  -1.247  1.00  0.00    -0.275 OA
ATOM     55  H   UNL     1      -7.817  -3.899  -3.861  1.00  0.00     0.159 HD
ATOM     56  H   UNL     1      -8.295  -4.660  -2.301  1.00  0.00     0.159 HD
ENDBRANCH  51  52
ENDBRANCH  46  51
ENDBRANCH  43  46
ENDBRANCH  41  42
BRANCH  41  57
ATOM     57  CB  ARG A   5      -5.341   1.615   0.282  1.00  0.00     0.037 C 
BRANCH  57  58
ATOM     58  CG  ARG A   5      -5.044   2.074   1.725  1.00  0.00     0.024 C 
BRANCH  58  59
ATOM     59  CD  ARG A   5      -6.109   1.635   2.742  1.00  0.00     0.116 C 
BRANCH  59  60
ATOM     60  NE  ARG A   5      -7.425   2.170   2.396  1.00  0.00    -0.357 N 
ATOM     61  CZ  ARG A   5      -7.787   3.543   2.597  1.00  0.00     0.185 C 
ATOM     62  NH2 ARG A   5      -9.072   4.006   2.172  1.00  0.00    -0.370 N 
ATOM     63  H   UNL     1      -8.143   1.509   2.028  1.00  0.00     0.163 HD
ATOM     64  H   UNL     1      -9.363   4.998   2.335  1.00  0.00     0.159 HD
ATOM     65  H   UNL     1      -9.736   3.354   1.698  1.00  0.00     0.159 HD
BRANCH  61  66
ATOM     66  NH1 ARG A   5      -6.959   4.359   3.171  1.00  0.00    -0.270 NA
ATOM     67  H   UNL     1      -7.200   5.361   3.338  1.00  0.00     0.191 HD
ENDBRANCH  61  66
ENDBRANCH  59  60
ENDBRANCH  58  59
ENDBRANCH  57  58
ENDBRANCH  41  57
ENDBRANCH  38  41
ENDBRANCH  36  37
BRANCH  36  68
ATOM     68  CB  LEU A   4      -1.883  -0.615   2.655  1.00  0.00     0.038 C 
BRANCH  68  69
ATOM     69  CG  LEU A   4      -0.674  -1.026   3.529  1.00  0.00    -0.015 C 
ATOM     70  CD1 LEU A   4      -0.226  -2.469   3.253  1.00  0.00     0.007 C 
ATOM     71  CD2 LEU A   4      -1.027  -0.861   5.013  1.00  0.00     0.007 C 
ENDBRANCH  68  69
ENDBRANCH  36  68
ENDBRANCH   3  36
TORSDOF 31
