REMARK SMILES CC(C)C[C@H](NC(=O)CNC(=O)[C@H](Cc1ccccc1)NC(=O)[C@@H](N)CO)C(=O)N[C@@H](CCCNC(=N)N)C(=O)N[C@@H](CO)C(=O)O
REMARK SMILES IDX 7 1 8 2 6 3 9 5 10 6 11 7 12 8 13 10 21 11 22 12 23 13 24 15
REMARK SMILES IDX 25 16 26 19 27 20 14 22 15 23 16 24 20 25 17 26 19 27 18 28
REMARK SMILES IDX 5 29 28 30 30 31 29 32 31 34 39 35 41 36 40 37 42 39 45 40
REMARK SMILES IDX 46 41 47 42 43 44 44 45 32 47 33 48 34 49 35 50 36 51 38 52
REMARK SMILES IDX 37 56 4 58 2 59 1 60 3 61
REMARK H PARENT 6 4 10 9 21 14 25 17 25 18 27 21 30 33 41 38 47 43 44 46 35 53
REMARK H PARENT 38 54 38 55 37 57
ROOT
ATOM      1  C   GLY A   3      20.042  10.101  -6.466  1.00  0.00     0.240 C 
ATOM      2  O   GLY A   3      20.173   9.205  -5.586  1.00  0.00    -0.273 OA
ATOM      3  N   LEU A   4      20.558   9.918  -7.775  1.00  0.00    -0.343 N 
ATOM      4  H   UNL     1      20.388  10.651  -8.503  1.00  0.00     0.164 HD
ENDROOT
BRANCH   1   5
ATOM      5  CA  GLY A   3      19.352  11.377  -6.153  1.00  0.00     0.216 C 
BRANCH   5   6
ATOM      6  N   GLY A   3      18.112  11.084  -5.478  1.00  0.00    -0.345 N 
ATOM      7  C   PHE A   2      16.896  11.758  -5.772  1.00  0.00     0.243 C 
ATOM      8  O   PHE A   2      16.901  12.792  -6.494  1.00  0.00    -0.273 OA
ATOM      9  H   UNL     1      18.214  10.612  -4.552  1.00  0.00     0.164 HD
BRANCH   7  10
ATOM     10  CA  PHE A   2      15.658  11.316  -5.061  1.00  0.00     0.175 C 
BRANCH  10  11
ATOM     11  N   PHE A   2      14.458  11.739  -5.770  1.00  0.00    -0.343 N 
ATOM     12  C   SER A   1      13.915  13.048  -5.637  1.00  0.00     0.239 C 
ATOM     13  O   SER A   1      14.447  13.869  -4.839  1.00  0.00    -0.273 OA
ATOM     14  H   UNL     1      13.870  10.997  -6.209  1.00  0.00     0.164 HD
BRANCH  12  15
ATOM     15  CA  SER A   1      12.655  13.407  -6.387  1.00  0.00     0.167 C 
BRANCH  15  16
ATOM     16  N   SER A   1      12.467  14.860  -6.384  1.00  0.00    -0.318 NA
ATOM     17  H   UNL     1      12.302  15.170  -5.398  1.00  0.00     0.119 HD
ATOM     18  H   UNL     1      11.582  15.086  -6.894  1.00  0.00     0.119 HD
ENDBRANCH  15  16
BRANCH  15  19
ATOM     19  CB  SER A   1      12.699  12.893  -7.844  1.00  0.00     0.184 C 
BRANCH  19  20
ATOM     20  OG  SER A   1      11.440  13.041  -8.440  1.00  0.00    -0.394 OA
ATOM     21  H   UNL     1      11.550  12.778  -9.391  1.00  0.00     0.210 HD
ENDBRANCH  19  20
ENDBRANCH  15  19
ENDBRANCH  12  15
ENDBRANCH  10  11
BRANCH  10  22
ATOM     22  CB  PHE A   2      15.628   9.778  -4.890  1.00  0.00     0.070 C 
BRANCH  22  23
ATOM     23  CG  PHE A   2      14.456   9.289  -4.087  1.00  0.00    -0.045 A 
ATOM     24  CD1 PHE A   2      13.910  10.047  -3.033  1.00  0.00     0.004 A 
ATOM     25  CD2 PHE A   2      13.976   7.991  -4.310  1.00  0.00     0.004 A 
ATOM     26  CE1 PHE A   2      12.872   9.537  -2.263  1.00  0.00     0.000 A 
ATOM     27  CE2 PHE A   2      12.944   7.479  -3.524  1.00  0.00     0.000 A 
ATOM     28  CZ  PHE A   2      12.389   8.254  -2.506  1.00  0.00     0.000 A 
ENDBRANCH  22  23
ENDBRANCH  10  22
ENDBRANCH   7  10
ENDBRANCH   5   6
ENDBRANCH   1   5
BRANCH   3  29
ATOM     29  CA  LEU A   4      21.346   8.758  -8.137  1.00  0.00     0.171 C 
BRANCH  29  30
ATOM     30  C   LEU A   4      22.711   9.216  -8.519  1.00  0.00     0.243 C 
ATOM     31  N   ARG A   5      23.822   8.719  -7.787  1.00  0.00    -0.343 N 
ATOM     32  O   LEU A   4      22.874  10.033  -9.466  1.00  0.00    -0.273 OA
ATOM     33  H   UNL     1      23.668   8.030  -7.016  1.00  0.00     0.164 HD
BRANCH  31  34
ATOM     34  CA  ARG A   5      25.185   9.120  -8.078  1.00  0.00     0.171 C 
BRANCH  34  35
ATOM     35  C   ARG A   5      25.897   7.963  -8.692  1.00  0.00     0.243 C 
ATOM     36  N   SER A   6      25.886   7.840 -10.110  1.00  0.00    -0.339 N 
ATOM     37  O   ARG A   5      26.455   7.090  -7.974  1.00  0.00    -0.273 OA
ATOM     38  H   UNL     1      25.373   8.566 -10.663  1.00  0.00     0.164 HD
BRANCH  36  39
ATOM     39  CA  SER A   6      26.545   6.744 -10.813  1.00  0.00     0.218 C 
BRANCH  39  40
ATOM     40  C   SER A   6      27.994   6.652 -10.414  1.00  0.00     0.328 C 
ATOM     41  O   SER A   6      28.791   7.589 -10.685  1.00  0.00    -0.250 OA
BRANCH  40  42
ATOM     42  OXT SER A   6      28.456   5.523  -9.744  1.00  0.00    -0.480 OA
ATOM     43  H   UNL     1      29.427   5.444  -9.468  1.00  0.00     0.296 HD
ENDBRANCH  40  42
ENDBRANCH  39  40
BRANCH  39  44
ATOM     44  CB  SER A   6      26.414   6.955 -12.329  1.00  0.00     0.193 C 
BRANCH  44  45
ATOM     45  OG  SER A   6      27.012   5.898 -13.032  1.00  0.00    -0.394 OA
ATOM     46  H   UNL     1      26.400   5.121 -12.950  1.00  0.00     0.210 HD
ENDBRANCH  44  45
ENDBRANCH  39  44
ENDBRANCH  36  39
ENDBRANCH  34  35
BRANCH  34  47
ATOM     47  CB  ARG A   5      25.864   9.604  -6.801  1.00  0.00     0.037 C 
BRANCH  47  48
ATOM     48  CG  ARG A   5      25.167  10.858  -6.272  1.00  0.00     0.024 C 
BRANCH  48  49
ATOM     49  CD  ARG A   5      25.843  11.388  -5.015  1.00  0.00     0.116 C 
BRANCH  49  50
ATOM     50  NE  ARG A   5      25.378  10.686  -3.821  1.00  0.00    -0.357 N 
ATOM     51  CZ  ARG A   5      25.470  11.281  -2.527  1.00  0.00     0.185 C 
ATOM     52  NH2 ARG A   5      26.109  12.546  -2.352  1.00  0.00    -0.370 N 
ATOM     53  H   UNL     1      24.900   9.760  -3.912  1.00  0.00     0.163 HD
ATOM     54  H   UNL     1      26.084  13.022  -1.423  1.00  0.00     0.159 HD
ATOM     55  H   UNL     1      26.699  12.981  -3.093  1.00  0.00     0.159 HD
BRANCH  51  56
ATOM     56  NH1 ARG A   5      24.956  10.671  -1.507  1.00  0.00    -0.270 NA
ATOM     57  H   UNL     1      24.999  11.075  -0.545  1.00  0.00     0.191 HD
ENDBRANCH  51  56
ENDBRANCH  49  50
ENDBRANCH  48  49
ENDBRANCH  47  48
ENDBRANCH  34  47
ENDBRANCH  31  34
ENDBRANCH  29  30
BRANCH  29  58
ATOM     58  CB  LEU A   4      20.656   7.997  -9.272  1.00  0.00     0.038 C 
BRANCH  58  59
ATOM     59  CG  LEU A   4      21.450   6.769  -9.770  1.00  0.00    -0.015 C 
ATOM     60  CD1 LEU A   4      21.764   5.778  -8.639  1.00  0.00     0.007 C 
ATOM     61  CD2 LEU A   4      20.660   6.065 -10.876  1.00  0.00     0.007 C 
ENDBRANCH  58  59
ENDBRANCH  29  58
ENDBRANCH   3  29
TORSDOF 26
