REMARK SMILES CC[C@H](C)[C@H](NC(=O)[C@@H](N)CO)C(=O)N[C@@H](CO)C(=O)N[C@@H](CC(C)C)C(=O)N[C@@H](CCCNC(=N)N)C(=O)N[C@@H](CC(N)=O)C(=O)O
REMARK SMILES IDX 19 1 20 2 21 3 16 5 15 6 13 7 14 8 5 10 6 11 7 12 8 13 9 15
REMARK SMILES IDX 10 16 11 19 12 20 3 22 4 23 2 24 1 25 17 26 18 27 22 29
REMARK SMILES IDX 27 30 29 31 28 32 30 34 38 35 40 36 39 37 41 39 46 40 47 41
REMARK SMILES IDX 48 42 42 44 43 45 44 46 45 47 31 50 32 51 33 52 34 53 35 54
REMARK SMILES IDX 37 55 36 59 23 61 24 62 25 63 26 64
REMARK H PARENT 21 4 15 9 6 14 10 17 10 18 12 21 18 28 29 33 40 38 48 43 44 48
REMARK H PARENT 44 49 34 56 37 57 37 58 36 60
ROOT
ATOM      1  C   SER A   3      20.038  10.103  -6.456  1.00  0.00     0.245 C 
ATOM      2  O   SER A   3      20.172   9.202  -5.581  1.00  0.00    -0.273 OA
ATOM      3  N   LEU A   4      20.555   9.924  -7.767  1.00  0.00    -0.342 N 
ATOM      4  H   UNL     1      20.384  10.659  -8.492  1.00  0.00     0.164 HD
ENDROOT
BRANCH   1   5
ATOM      5  CA  SER A   3      19.332  11.379  -6.133  1.00  0.00     0.197 C 
BRANCH   5   6
ATOM      6  N   SER A   3      18.089  11.070  -5.465  1.00  0.00    -0.340 N 
ATOM      7  C   ILE A   2      16.873  11.747  -5.751  1.00  0.00     0.243 C 
ATOM      8  O   ILE A   2      16.878  12.786  -6.468  1.00  0.00    -0.273 OA
ATOM      9  H   UNL     1      18.173  10.550  -4.564  1.00  0.00     0.164 HD
BRANCH   7  10
ATOM     10  CA  ILE A   2      15.619  11.257  -5.081  1.00  0.00     0.174 C 
BRANCH  10  11
ATOM     11  N   ILE A   2      14.423  11.732  -5.766  1.00  0.00    -0.343 N 
ATOM     12  C   SER A   1      13.917  13.054  -5.636  1.00  0.00     0.239 C 
ATOM     13  O   SER A   1      14.464  13.865  -4.840  1.00  0.00    -0.273 OA
ATOM     14  H   UNL     1      13.746  11.028  -6.125  1.00  0.00     0.164 HD
BRANCH  12  15
ATOM     15  CA  SER A   1      12.658  13.421  -6.382  1.00  0.00     0.167 C 
BRANCH  15  16
ATOM     16  N   SER A   1      12.474  14.873  -6.381  1.00  0.00    -0.318 NA
ATOM     17  H   UNL     1      11.587  15.099  -6.887  1.00  0.00     0.119 HD
ATOM     18  H   UNL     1      12.316  15.185  -5.395  1.00  0.00     0.119 HD
ENDBRANCH  15  16
BRANCH  15  19
ATOM     19  CB  SER A   1      12.698  12.903  -7.841  1.00  0.00     0.184 C 
BRANCH  19  20
ATOM     20  OG  SER A   1      11.441  13.034  -8.446  1.00  0.00    -0.394 OA
ATOM     21  H   UNL     1      10.865  12.322  -8.063  1.00  0.00     0.210 HD
ENDBRANCH  19  20
ENDBRANCH  15  19
ENDBRANCH  12  15
ENDBRANCH  10  11
BRANCH  10  22
ATOM     22  CB  ILE A   2      15.582   9.695  -4.957  1.00  0.00     0.018 C 
ATOM     23  CG1 ILE A   2      14.431   9.270  -4.040  1.00  0.00     0.010 C 
BRANCH  22  24
ATOM     24  CG2 ILE A   2      15.484   8.904  -6.301  1.00  0.00     0.002 C 
ATOM     25  CD1 ILE A   2      16.796   8.802  -7.076  1.00  0.00     0.004 C 
ENDBRANCH  22  24
ENDBRANCH  10  22
ENDBRANCH   7  10
ENDBRANCH   5   6
BRANCH   5  26
ATOM     26  CB  SER A   3      20.192  12.249  -5.218  1.00  0.00     0.191 C 
BRANCH  26  27
ATOM     27  OG  SER A   3      19.584  13.496  -5.007  1.00  0.00    -0.394 OA
ATOM     28  H   UNL     1      18.950  13.382  -4.252  1.00  0.00     0.210 HD
ENDBRANCH  26  27
ENDBRANCH   5  26
ENDBRANCH   1   5
BRANCH   3  29
ATOM     29  CA  LEU A   4      21.343   8.762  -8.133  1.00  0.00     0.171 C 
BRANCH  29  30
ATOM     30  C   LEU A   4      22.709   9.218  -8.516  1.00  0.00     0.243 C 
ATOM     31  N   ARG A   5      23.820   8.720  -7.784  1.00  0.00    -0.343 N 
ATOM     32  O   LEU A   4      22.873  10.033  -9.465  1.00  0.00    -0.273 OA
ATOM     33  H   UNL     1      23.665   8.029  -7.014  1.00  0.00     0.164 HD
BRANCH  31  34
ATOM     34  CA  ARG A   5      25.183   9.121  -8.073  1.00  0.00     0.171 C 
BRANCH  34  35
ATOM     35  C   ARG A   5      25.898   7.968  -8.685  1.00  0.00     0.243 C 
ATOM     36  N   ASN A   6      25.913   7.864 -10.102  1.00  0.00    -0.341 N 
ATOM     37  O   ARG A   5      26.447   7.087  -7.969  1.00  0.00    -0.273 OA
ATOM     38  H   UNL     1      25.489   8.648 -10.651  1.00  0.00     0.164 HD
BRANCH  36  39
ATOM     39  CA  ASN A   6      26.542   6.751 -10.804  1.00  0.00     0.201 C 
BRANCH  39  40
ATOM     40  C   ASN A   6      27.992   6.642 -10.415  1.00  0.00     0.326 C 
ATOM     41  O   ASN A   6      28.794   7.579 -10.677  1.00  0.00    -0.250 OA
BRANCH  40  42
ATOM     42  OXT ASN A   6      28.451   5.499  -9.768  1.00  0.00    -0.480 OA
ATOM     43  H   UNL     1      29.423   5.409  -9.499  1.00  0.00     0.296 HD
ENDBRANCH  40  42
ENDBRANCH  39  40
BRANCH  39  44
ATOM     44  CB  ASN A   6      26.424   6.947 -12.323  1.00  0.00     0.136 C 
BRANCH  44  45
ATOM     45  CG  ASN A   6      25.010   7.180 -12.773  1.00  0.00     0.220 C 
ATOM     46  ND2 ASN A   6      24.753   8.090 -13.833  1.00  0.00    -0.370 N 
ATOM     47  OD1 ASN A   6      24.053   6.558 -12.243  1.00  0.00    -0.275 OA
ATOM     48  H   UNL     1      25.533   8.600 -14.306  1.00  0.00     0.159 HD
ATOM     49  H   UNL     1      23.774   8.258 -14.156  1.00  0.00     0.159 HD
ENDBRANCH  44  45
ENDBRANCH  39  44
ENDBRANCH  36  39
ENDBRANCH  34  35
BRANCH  34  50
ATOM     50  CB  ARG A   5      25.862   9.605  -6.796  1.00  0.00     0.037 C 
BRANCH  50  51
ATOM     51  CG  ARG A   5      25.166  10.860  -6.270  1.00  0.00     0.024 C 
BRANCH  51  52
ATOM     52  CD  ARG A   5      25.842  11.390  -5.014  1.00  0.00     0.116 C 
BRANCH  52  53
ATOM     53  NE  ARG A   5      25.378  10.687  -3.820  1.00  0.00    -0.357 N 
ATOM     54  CZ  ARG A   5      25.470  11.282  -2.526  1.00  0.00     0.185 C 
ATOM     55  NH2 ARG A   5      26.109  12.546  -2.351  1.00  0.00    -0.370 N 
ATOM     56  H   UNL     1      24.899   9.762  -3.912  1.00  0.00     0.163 HD
ATOM     57  H   UNL     1      26.699  12.981  -3.092  1.00  0.00     0.159 HD
ATOM     58  H   UNL     1      26.083  13.022  -1.422  1.00  0.00     0.159 HD
BRANCH  54  59
ATOM     59  NH1 ARG A   5      24.956  10.671  -1.507  1.00  0.00    -0.270 NA
ATOM     60  H   UNL     1      24.999  11.075  -0.544  1.00  0.00     0.191 HD
ENDBRANCH  54  59
ENDBRANCH  52  53
ENDBRANCH  51  52
ENDBRANCH  50  51
ENDBRANCH  34  50
ENDBRANCH  31  34
ENDBRANCH  29  30
BRANCH  29  61
ATOM     61  CB  LEU A   4      20.651   8.000  -9.267  1.00  0.00     0.038 C 
BRANCH  61  62
ATOM     62  CG  LEU A   4      21.447   6.773  -9.766  1.00  0.00    -0.015 C 
ATOM     63  CD1 LEU A   4      21.762   5.780  -8.638  1.00  0.00     0.007 C 
ATOM     64  CD2 LEU A   4      20.661   6.069 -10.876  1.00  0.00     0.007 C 
ENDBRANCH  61  62
ENDBRANCH  29  61
ENDBRANCH   3  29
TORSDOF 28
