REMARK SMILES CC(C)C[C@H](NC(=O)[C@H](CC(N)=O)NC(=O)[C@H](Cc1ccccc1)NC(=O)CN)C(=O)N[C@@H](CCCNC(=N)N)C(=O)N[C@@H](CC(N)=O)C(=O)O
REMARK SMILES IDX 5 1 6 2 7 3 8 4 9 6 14 7 15 8 16 9 17 11 25 12 26 13 27 14
REMARK SMILES IDX 28 16 29 17 18 20 19 21 20 22 24 23 21 24 23 25 22 26 10 27
REMARK SMILES IDX 11 28 12 29 13 30 30 33 32 34 31 35 33 37 41 38 43 39 42 40
REMARK SMILES IDX 44 42 49 43 50 44 51 45 45 47 46 48 47 49 48 50 34 53 35 54
REMARK SMILES IDX 36 55 37 56 38 57 40 58 39 62 4 64 2 65 1 66 3 67
REMARK H PARENT 6 5 14 10 25 15 29 18 29 19 12 31 12 32 32 36 43 41 51 46
REMARK H PARENT 47 51 47 52 37 59 40 60 40 61 39 63
ROOT
ATOM      1  CA  LEU A   4      21.347   8.760  -8.138  1.00  0.00     0.171 C 
ENDROOT
BRANCH   1   2
ATOM      2  N   LEU A   4      20.562   9.921  -7.770  1.00  0.00    -0.342 N 
ATOM      3  C   ASN A   3      20.051  10.095  -6.458  1.00  0.00     0.243 C 
ATOM      4  O   ASN A   3      20.171   9.183  -5.593  1.00  0.00    -0.273 OA
ATOM      5  H   UNL     1      20.394  10.659  -8.492  1.00  0.00     0.164 HD
BRANCH   3   6
ATOM      6  CA  ASN A   3      19.346  11.366  -6.129  1.00  0.00     0.180 C 
BRANCH   6   7
ATOM      7  N   ASN A   3      18.087  11.043  -5.506  1.00  0.00    -0.342 N 
ATOM      8  C   PHE A   2      16.889  11.752  -5.779  1.00  0.00     0.243 C 
ATOM      9  O   PHE A   2      16.913  12.797  -6.484  1.00  0.00    -0.273 OA
ATOM     10  H   UNL     1      18.157  10.484  -4.631  1.00  0.00     0.164 HD
BRANCH   8  11
ATOM     11  CA  PHE A   2      15.642  11.319  -5.083  1.00  0.00     0.175 C 
BRANCH  11  12
ATOM     12  N   PHE A   2      14.464  11.769  -5.817  1.00  0.00    -0.343 N 
ATOM     13  C   GLY A   1      13.902  13.060  -5.617  1.00  0.00     0.234 C 
ATOM     14  O   GLY A   1      14.432  13.863  -4.802  1.00  0.00    -0.274 OA
ATOM     15  H   UNL     1      14.069  11.161  -6.571  1.00  0.00     0.164 HD
BRANCH  13  16
ATOM     16  CA  GLY A   1      12.656  13.428  -6.360  1.00  0.00     0.178 C 
BRANCH  16  17
ATOM     17  N   GLY A   1      12.484  14.875  -6.399  1.00  0.00    -0.322 NA
ATOM     18  H   UNL     1      12.192  15.196  -5.447  1.00  0.00     0.119 HD
ATOM     19  H   UNL     1      11.682  15.082  -7.037  1.00  0.00     0.119 HD
ENDBRANCH  16  17
ENDBRANCH  13  16
ENDBRANCH  11  12
BRANCH  11  20
ATOM     20  CB  PHE A   2      15.589   9.781  -4.920  1.00  0.00     0.070 C 
BRANCH  20  21
ATOM     21  CG  PHE A   2      14.433   9.296  -4.102  1.00  0.00    -0.045 A 
ATOM     22  CD1 PHE A   2      13.900  10.051  -3.040  1.00  0.00     0.004 A 
ATOM     23  CD2 PHE A   2      13.963   7.992  -4.313  1.00  0.00     0.004 A 
ATOM     24  CE1 PHE A   2      12.872   9.538  -2.260  1.00  0.00     0.000 A 
ATOM     25  CE2 PHE A   2      12.940   7.478  -3.518  1.00  0.00     0.000 A 
ATOM     26  CZ  PHE A   2      12.389   8.254  -2.499  1.00  0.00     0.000 A 
ENDBRANCH  20  21
ENDBRANCH  11  20
ENDBRANCH   8  11
ENDBRANCH   6   7
BRANCH   6  27
ATOM     27  CB  ASN A   3      20.177  12.262  -5.200  1.00  0.00     0.134 C 
BRANCH  27  28
ATOM     28  CG  ASN A   3      20.419  11.672  -3.833  1.00  0.00     0.220 C 
ATOM     29  ND2 ASN A   3      19.497  11.906  -2.769  1.00  0.00    -0.370 N 
ATOM     30  OD1 ASN A   3      21.442  10.964  -3.628  1.00  0.00    -0.275 OA
ATOM     31  H   UNL     1      19.664  11.491  -1.826  1.00  0.00     0.159 HD
ATOM     32  H   UNL     1      18.642  12.487  -2.921  1.00  0.00     0.159 HD
ENDBRANCH  27  28
ENDBRANCH   6  27
ENDBRANCH   3   6
ENDBRANCH   1   2
BRANCH   1  33
ATOM     33  C   LEU A   4      22.712   9.216  -8.519  1.00  0.00     0.243 C 
ATOM     34  N   ARG A   5      23.822   8.720  -7.785  1.00  0.00    -0.343 N 
ATOM     35  O   LEU A   4      22.876  10.032  -9.467  1.00  0.00    -0.273 OA
ATOM     36  H   UNL     1      23.667   8.030  -7.015  1.00  0.00     0.164 HD
BRANCH  34  37
ATOM     37  CA  ARG A   5      25.185   9.122  -8.073  1.00  0.00     0.171 C 
BRANCH  37  38
ATOM     38  C   ARG A   5      25.899   7.968  -8.685  1.00  0.00     0.243 C 
ATOM     39  N   ASN A   6      25.913   7.864 -10.102  1.00  0.00    -0.341 N 
ATOM     40  O   ARG A   5      26.447   7.087  -7.969  1.00  0.00    -0.273 OA
ATOM     41  H   UNL     1      25.489   8.647 -10.651  1.00  0.00     0.164 HD
BRANCH  39  42
ATOM     42  CA  ASN A   6      26.542   6.751 -10.804  1.00  0.00     0.201 C 
BRANCH  42  43
ATOM     43  C   ASN A   6      27.993   6.642 -10.416  1.00  0.00     0.326 C 
ATOM     44  O   ASN A   6      28.794   7.579 -10.677  1.00  0.00    -0.250 OA
BRANCH  43  45
ATOM     45  OXT ASN A   6      28.451   5.499  -9.768  1.00  0.00    -0.480 OA
ATOM     46  H   UNL     1      29.424   5.409  -9.499  1.00  0.00     0.296 HD
ENDBRANCH  43  45
ENDBRANCH  42  43
BRANCH  42  47
ATOM     47  CB  ASN A   6      26.424   6.946 -12.323  1.00  0.00     0.136 C 
BRANCH  47  48
ATOM     48  CG  ASN A   6      25.010   7.180 -12.773  1.00  0.00     0.220 C 
ATOM     49  ND2 ASN A   6      24.753   8.090 -13.833  1.00  0.00    -0.370 N 
ATOM     50  OD1 ASN A   6      24.053   6.558 -12.243  1.00  0.00    -0.275 OA
ATOM     51  H   UNL     1      23.775   8.258 -14.156  1.00  0.00     0.159 HD
ATOM     52  H   UNL     1      25.533   8.600 -14.306  1.00  0.00     0.159 HD
ENDBRANCH  47  48
ENDBRANCH  42  47
ENDBRANCH  39  42
ENDBRANCH  37  38
BRANCH  37  53
ATOM     53  CB  ARG A   5      25.863   9.605  -6.796  1.00  0.00     0.037 C 
BRANCH  53  54
ATOM     54  CG  ARG A   5      25.167  10.861  -6.272  1.00  0.00     0.024 C 
BRANCH  54  55
ATOM     55  CD  ARG A   5      25.841  11.391  -5.015  1.00  0.00     0.116 C 
BRANCH  55  56
ATOM     56  NE  ARG A   5      25.377  10.685  -3.823  1.00  0.00    -0.357 N 
ATOM     57  CZ  ARG A   5      25.468  11.279  -2.527  1.00  0.00     0.185 C 
ATOM     58  NH2 ARG A   5      26.106  12.541  -2.349  1.00  0.00    -0.370 N 
ATOM     59  H   UNL     1      24.900   9.759  -3.922  1.00  0.00     0.163 HD
ATOM     60  H   UNL     1      26.693  12.982  -3.090  1.00  0.00     0.159 HD
ATOM     61  H   UNL     1      26.084  13.006  -1.415  1.00  0.00     0.159 HD
BRANCH  57  62
ATOM     62  NH1 ARG A   5      24.957  10.679  -1.500  1.00  0.00    -0.270 NA
ATOM     63  H   UNL     1      24.476   9.756  -1.584  1.00  0.00     0.191 HD
ENDBRANCH  57  62
ENDBRANCH  55  56
ENDBRANCH  54  55
ENDBRANCH  53  54
ENDBRANCH  37  53
ENDBRANCH  34  37
ENDBRANCH   1  33
BRANCH   1  64
ATOM     64  CB  LEU A   4      20.654   7.999  -9.271  1.00  0.00     0.038 C 
BRANCH  64  65
ATOM     65  CG  LEU A   4      21.448   6.771  -9.768  1.00  0.00    -0.015 C 
ATOM     66  CD1 LEU A   4      21.762   5.778  -8.639  1.00  0.00     0.007 C 
ATOM     67  CD2 LEU A   4      20.661   6.068 -10.877  1.00  0.00     0.007 C 
ENDBRANCH  64  65
ENDBRANCH   1  64
TORSDOF 26
