REMARK SMILES CC(C)C[C@H](NC(=O)CNC(=O)[C@@H](N)CO)C(=O)N[C@@H](C)C(=O)N[C@@H](CCCNC(=N)N)C(=O)N[C@@H](CC(N)=O)C(=O)O
REMARK SMILES IDX 17 1 18 2 19 3 5 5 6 6 7 7 8 8 9 10 10 11 11 12 12 13 13 15
REMARK SMILES IDX 14 16 15 19 16 20 4 22 2 23 1 24 3 25 20 26 21 27 22 28
REMARK SMILES IDX 24 29 23 30 25 32 33 33 35 34 34 35 36 37 41 38 42 39 43 40
REMARK SMILES IDX 37 42 38 43 39 44 40 45 26 48 27 49 28 50 29 51 30 52 32 53
REMARK SMILES IDX 31 57
REMARK H PARENT 19 4 6 9 10 14 14 17 14 18 16 21 24 31 35 36 43 41 39 46 39 47
REMARK H PARENT 29 54 32 55 32 56 31 58
ROOT
ATOM      1  C   LEU A   3       2.381  -0.824  -2.562  1.00  0.00     0.243 C 
ATOM      2  O   LEU A   3       2.393  -0.508  -3.782  1.00  0.00    -0.273 OA
ATOM      3  N   ALA A   4       1.154  -0.767  -1.812  1.00  0.00    -0.343 N 
ATOM      4  H   UNL     1       1.200  -0.902  -0.779  1.00  0.00     0.164 HD
ENDROOT
BRANCH   1   5
ATOM      5  CA  LEU A   3       3.678  -1.216  -1.898  1.00  0.00     0.171 C 
BRANCH   5   6
ATOM      6  N   LEU A   3       4.090  -0.147  -0.983  1.00  0.00    -0.343 N 
ATOM      7  C   GLY A   2       5.470   0.138  -0.707  1.00  0.00     0.240 C 
ATOM      8  O   GLY A   2       6.377  -0.632  -1.125  1.00  0.00    -0.273 OA
ATOM      9  H   UNL     1       3.358   0.406  -0.481  1.00  0.00     0.164 HD
BRANCH   7  10
ATOM     10  CA  GLY A   2       5.843   1.323   0.131  1.00  0.00     0.216 C 
BRANCH  10  11
ATOM     11  N   GLY A   2       6.022   0.933   1.529  1.00  0.00    -0.346 N 
ATOM     12  C   SER A   1       6.479   1.877   2.509  1.00  0.00     0.239 C 
ATOM     13  O   SER A   1       6.690   3.075   2.178  1.00  0.00    -0.273 OA
ATOM     14  H   UNL     1       5.836  -0.053   1.818  1.00  0.00     0.164 HD
BRANCH  12  15
ATOM     15  CA  SER A   1       6.690   1.464   3.948  1.00  0.00     0.167 C 
BRANCH  15  16
ATOM     16  N   SER A   1       5.416   1.132   4.587  1.00  0.00    -0.318 NA
ATOM     17  H   UNL     1       4.796   1.974   4.548  1.00  0.00     0.119 HD
ATOM     18  H   UNL     1       4.940   0.372   4.048  1.00  0.00     0.119 HD
ENDBRANCH  15  16
BRANCH  15  19
ATOM     19  CB  SER A   1       7.668   0.285   4.078  1.00  0.00     0.184 C 
BRANCH  19  20
ATOM     20  OG  SER A   1       8.918   0.613   3.534  1.00  0.00    -0.394 OA
ATOM     21  H   UNL     1       8.874   0.407   2.564  1.00  0.00     0.210 HD
ENDBRANCH  19  20
ENDBRANCH  15  19
ENDBRANCH  12  15
ENDBRANCH  10  11
ENDBRANCH   7  10
ENDBRANCH   5   6
BRANCH   5  22
ATOM     22  CB  LEU A   3       3.590  -2.558  -1.134  1.00  0.00     0.038 C 
BRANCH  22  23
ATOM     23  CG  LEU A   3       3.560  -3.813  -2.045  1.00  0.00    -0.015 C 
ATOM     24  CD1 LEU A   3       3.909  -5.062  -1.223  1.00  0.00     0.007 C 
ATOM     25  CD2 LEU A   3       2.195  -4.010  -2.723  1.00  0.00     0.007 C 
ENDBRANCH  22  23
ENDBRANCH   5  22
ENDBRANCH   1   5
BRANCH   3  26
ATOM     26  CA  ALA A   4      -0.125  -0.394  -2.432  1.00  0.00     0.168 C 
ATOM     27  CB  ALA A   4      -0.611  -1.501  -3.373  1.00  0.00     0.041 C 
BRANCH  26  28
ATOM     28  C   ALA A   4      -1.174  -0.141  -1.379  1.00  0.00     0.242 C 
ATOM     29  N   ARG A   5      -2.012   1.024  -1.453  1.00  0.00    -0.343 N 
ATOM     30  O   ALA A   4      -1.358  -0.994  -0.465  1.00  0.00    -0.273 OA
ATOM     31  H   UNL     1      -1.770   1.772  -2.139  1.00  0.00     0.164 HD
BRANCH  29  32
ATOM     32  CA  ARG A   5      -3.204   1.171  -0.610  1.00  0.00     0.171 C 
BRANCH  32  33
ATOM     33  C   ARG A   5      -4.207   0.104  -0.968  1.00  0.00     0.243 C 
ATOM     34  N   ASN A   6      -4.789  -0.712   0.059  1.00  0.00    -0.341 N 
ATOM     35  O   ARG A   5      -4.548  -0.052  -2.172  1.00  0.00    -0.273 OA
ATOM     36  H   UNL     1      -4.572  -0.490   1.057  1.00  0.00     0.164 HD
BRANCH  34  37
ATOM     37  CA  ASN A   6      -5.693  -1.824  -0.253  1.00  0.00     0.201 C 
BRANCH  37  38
ATOM     38  C   ASN A   6      -7.054  -1.288  -0.583  1.00  0.00     0.326 C 
ATOM     39  O   ASN A   6      -7.630  -0.488   0.203  1.00  0.00    -0.250 OA
BRANCH  38  40
ATOM     40  OXT ASN A   6      -7.686  -1.685  -1.756  1.00  0.00    -0.480 OA
ATOM     41  H   UNL     1      -8.610  -1.340  -1.988  1.00  0.00     0.296 HD
ENDBRANCH  38  40
ENDBRANCH  37  38
BRANCH  37  42
ATOM     42  CB  ASN A   6      -5.781  -2.812   0.925  1.00  0.00     0.136 C 
BRANCH  42  43
ATOM     43  CG  ASN A   6      -4.438  -3.412   1.231  1.00  0.00     0.220 C 
ATOM     44  ND2 ASN A   6      -3.683  -2.966   2.358  1.00  0.00    -0.370 N 
ATOM     45  OD1 ASN A   6      -3.953  -4.286   0.465  1.00  0.00    -0.275 OA
ATOM     46  H   UNL     1      -4.066  -2.239   3.002  1.00  0.00     0.159 HD
ATOM     47  H   UNL     1      -2.738  -3.364   2.551  1.00  0.00     0.159 HD
ENDBRANCH  42  43
ENDBRANCH  37  42
ENDBRANCH  34  37
ENDBRANCH  32  33
BRANCH  32  48
ATOM     48  CB  ARG A   5      -3.820   2.575  -0.780  1.00  0.00     0.037 C 
BRANCH  48  49
ATOM     49  CG  ARG A   5      -4.964   2.831   0.219  1.00  0.00     0.024 C 
BRANCH  49  50
ATOM     50  CD  ARG A   5      -5.621   4.199  -0.004  1.00  0.00     0.116 C 
BRANCH  50  51
ATOM     51  NE  ARG A   5      -4.679   5.289   0.248  1.00  0.00    -0.357 N 
ATOM     52  CZ  ARG A   5      -4.289   5.696   1.568  1.00  0.00     0.185 C 
ATOM     53  NH2 ARG A   5      -3.345   6.758   1.733  1.00  0.00    -0.370 N 
ATOM     54  H   UNL     1      -4.318   5.829  -0.571  1.00  0.00     0.163 HD
ATOM     55  H   UNL     1      -2.925   7.228   0.902  1.00  0.00     0.159 HD
ATOM     56  H   UNL     1      -3.060   7.081   2.684  1.00  0.00     0.159 HD
BRANCH  52  57
ATOM     57  NH1 ARG A   5      -4.795   5.112   2.609  1.00  0.00    -0.270 NA
ATOM     58  H   UNL     1      -4.529   5.395   3.578  1.00  0.00     0.191 HD
ENDBRANCH  52  57
ENDBRANCH  50  51
ENDBRANCH  49  50
ENDBRANCH  48  49
ENDBRANCH  32  48
ENDBRANCH  29  32
ENDBRANCH  26  28
ENDBRANCH   3  26
TORSDOF 24
