REMARK SMILES CC(C)C[C@H](NC(=O)[C@H](CC(N)=O)NC(=O)[C@@H](N)CO)C(=O)N[C@@H](C)C(=O)N[C@@H](CCCNC(=N)N)C(=O)N[C@@H](CC(N)=O)C(=O)O
REMARK SMILES IDX 21 1 22 2 23 3 5 5 6 6 7 7 8 8 9 10 14 11 15 12 16 13 17 15
REMARK SMILES IDX 18 16 19 19 20 20 10 22 11 23 12 24 13 25 4 28 2 29 1 30
REMARK SMILES IDX 3 31 24 32 25 33 26 34 28 35 27 36 29 38 37 39 39 40 38 41
REMARK SMILES IDX 40 43 45 44 46 45 47 46 41 48 42 49 43 50 44 51 30 54 31 55
REMARK SMILES IDX 32 56 33 57 34 58 36 59 35 63
REMARK H PARENT 23 4 6 9 14 14 18 17 18 18 20 21 12 26 12 27 28 37 39 42 47 47
REMARK H PARENT 43 52 43 53 33 60 36 61 36 62 35 64
ROOT
ATOM      1  C   LEU A   3      20.047  10.079  -6.474  1.00  0.00     0.243 C 
ATOM      2  O   LEU A   3      20.165   9.155  -5.622  1.00  0.00    -0.273 OA
ATOM      3  N   ALA A   4      20.563   9.913  -7.783  1.00  0.00    -0.343 N 
ATOM      4  H   UNL     1      20.402  10.658  -8.500  1.00  0.00     0.164 HD
ENDROOT
BRANCH   1   5
ATOM      5  CA  LEU A   3      19.328  11.346  -6.139  1.00  0.00     0.171 C 
BRANCH   5   6
ATOM      6  N   LEU A   3      18.073  11.010  -5.519  1.00  0.00    -0.342 N 
ATOM      7  C   ASN A   2      16.873  11.737  -5.743  1.00  0.00     0.243 C 
ATOM      8  O   ASN A   2      16.890  12.786  -6.447  1.00  0.00    -0.273 OA
ATOM      9  H   UNL     1      18.142  10.368  -4.705  1.00  0.00     0.164 HD
BRANCH   7  10
ATOM     10  CA  ASN A   2      15.624  11.282  -5.037  1.00  0.00     0.180 C 
BRANCH  10  11
ATOM     11  N   ASN A   2      14.442  11.728  -5.759  1.00  0.00    -0.342 N 
ATOM     12  C   SER A   1      13.917  13.044  -5.632  1.00  0.00     0.239 C 
ATOM     13  O   SER A   1      14.453  13.861  -4.833  1.00  0.00    -0.273 OA
ATOM     14  H   UNL     1      13.857  11.001  -6.224  1.00  0.00     0.164 HD
BRANCH  12  15
ATOM     15  CA  SER A   1      12.662  13.411  -6.387  1.00  0.00     0.167 C 
BRANCH  15  16
ATOM     16  N   SER A   1      12.457  14.861  -6.396  1.00  0.00    -0.318 NA
ATOM     17  H   UNL     1      12.288  15.189  -5.417  1.00  0.00     0.119 HD
ATOM     18  H   UNL     1      13.320  15.337  -6.751  1.00  0.00     0.119 HD
ENDBRANCH  15  16
BRANCH  15  19
ATOM     19  CB  SER A   1      12.691  12.891  -7.842  1.00  0.00     0.184 C 
BRANCH  19  20
ATOM     20  OG  SER A   1      11.437  13.054  -8.445  1.00  0.00    -0.394 OA
ATOM     21  H   UNL     1      10.842  12.357  -8.063  1.00  0.00     0.210 HD
ENDBRANCH  19  20
ENDBRANCH  15  19
ENDBRANCH  12  15
ENDBRANCH  10  11
BRANCH  10  22
ATOM     22  CB  ASN A   2      15.576   9.738  -4.904  1.00  0.00     0.134 C 
BRANCH  22  23
ATOM     23  CG  ASN A   2      14.400   9.290  -4.098  1.00  0.00     0.220 C 
ATOM     24  ND2 ASN A   2      14.379   9.479  -2.683  1.00  0.00    -0.370 N 
ATOM     25  OD1 ASN A   2      13.413   8.758  -4.672  1.00  0.00    -0.275 OA
ATOM     26  H   UNL     1      13.551   9.176  -2.124  1.00  0.00     0.159 HD
ATOM     27  H   UNL     1      15.188   9.919  -2.192  1.00  0.00     0.159 HD
ENDBRANCH  22  23
ENDBRANCH  10  22
ENDBRANCH   7  10
ENDBRANCH   5   6
BRANCH   5  28
ATOM     28  CB  LEU A   3      20.158  12.249  -5.215  1.00  0.00     0.038 C 
BRANCH  28  29
ATOM     29  CG  LEU A   3      20.415  11.678  -3.791  1.00  0.00    -0.015 C 
ATOM     30  CD1 LEU A   3      21.818  12.067  -3.319  1.00  0.00     0.007 C 
ATOM     31  CD2 LEU A   3      19.369  12.169  -2.779  1.00  0.00     0.007 C 
ENDBRANCH  28  29
ENDBRANCH   5  28
ENDBRANCH   1   5
BRANCH   3  32
ATOM     32  CA  ALA A   4      21.342   8.748  -8.157  1.00  0.00     0.168 C 
ATOM     33  CB  ALA A   4      20.664   8.007  -9.299  1.00  0.00     0.041 C 
BRANCH  32  34
ATOM     34  C   ALA A   4      22.710   9.198  -8.533  1.00  0.00     0.242 C 
ATOM     35  N   ARG A   5      23.817   8.707  -7.791  1.00  0.00    -0.343 N 
ATOM     36  O   ALA A   4      22.877  10.027  -9.470  1.00  0.00    -0.273 OA
ATOM     37  H   UNL     1      23.661   7.985  -7.050  1.00  0.00     0.164 HD
BRANCH  35  38
ATOM     38  CA  ARG A   5      25.181   9.117  -8.072  1.00  0.00     0.171 C 
BRANCH  38  39
ATOM     39  C   ARG A   5      25.901   7.968  -8.686  1.00  0.00     0.243 C 
ATOM     40  N   ASN A   6      25.916   7.866 -10.103  1.00  0.00    -0.341 N 
ATOM     41  O   ARG A   5      26.450   7.087  -7.970  1.00  0.00    -0.273 OA
ATOM     42  H   UNL     1      25.496   8.651 -10.651  1.00  0.00     0.164 HD
BRANCH  40  43
ATOM     43  CA  ASN A   6      26.543   6.751 -10.804  1.00  0.00     0.201 C 
BRANCH  43  44
ATOM     44  C   ASN A   6      27.994   6.642 -10.417  1.00  0.00     0.326 C 
ATOM     45  O   ASN A   6      28.795   7.579 -10.677  1.00  0.00    -0.250 OA
BRANCH  44  46
ATOM     46  OXT ASN A   6      28.453   5.497  -9.772  1.00  0.00    -0.480 OA
ATOM     47  H   UNL     1      29.426   5.407  -9.504  1.00  0.00     0.296 HD
ENDBRANCH  44  46
ENDBRANCH  43  44
BRANCH  43  48
ATOM     48  CB  ASN A   6      26.424   6.946 -12.323  1.00  0.00     0.136 C 
BRANCH  48  49
ATOM     49  CG  ASN A   6      25.009   7.181 -12.772  1.00  0.00     0.220 C 
ATOM     50  ND2 ASN A   6      24.753   8.089 -13.834  1.00  0.00    -0.370 N 
ATOM     51  OD1 ASN A   6      24.051   6.563 -12.238  1.00  0.00    -0.275 OA
ATOM     52  H   UNL     1      23.775   8.258 -14.156  1.00  0.00     0.159 HD
ATOM     53  H   UNL     1      25.533   8.595 -14.309  1.00  0.00     0.159 HD
ENDBRANCH  48  49
ENDBRANCH  43  48
ENDBRANCH  40  43
ENDBRANCH  38  39
BRANCH  38  54
ATOM     54  CB  ARG A   5      25.855   9.600  -6.792  1.00  0.00     0.037 C 
BRANCH  54  55
ATOM     55  CG  ARG A   5      25.162  10.857  -6.270  1.00  0.00     0.024 C 
BRANCH  55  56
ATOM     56  CD  ARG A   5      25.838  11.390  -5.014  1.00  0.00     0.116 C 
BRANCH  56  57
ATOM     57  NE  ARG A   5      25.377  10.686  -3.820  1.00  0.00    -0.357 N 
ATOM     58  CZ  ARG A   5      25.469  11.281  -2.527  1.00  0.00     0.185 C 
ATOM     59  NH2 ARG A   5      26.107  12.546  -2.352  1.00  0.00    -0.370 N 
ATOM     60  H   UNL     1      24.894   9.763  -3.911  1.00  0.00     0.163 HD
ATOM     61  H   UNL     1      26.696  12.982  -3.094  1.00  0.00     0.159 HD
ATOM     62  H   UNL     1      26.080  13.024  -1.424  1.00  0.00     0.159 HD
BRANCH  58  63
ATOM     63  NH1 ARG A   5      24.955  10.672  -1.507  1.00  0.00    -0.270 NA
ATOM     64  H   UNL     1      24.996  11.077  -0.545  1.00  0.00     0.191 HD
ENDBRANCH  58  63
ENDBRANCH  56  57
ENDBRANCH  55  56
ENDBRANCH  54  55
ENDBRANCH  38  54
ENDBRANCH  35  38
ENDBRANCH  32  34
ENDBRANCH   3  32
TORSDOF 26
