REMARK SMILES CC(C)C[C@H](NC(=O)[C@H](Cc1ccccc1)NC(=O)[C@@H](N)CO)C(=O)N[C@@H](CCCCN)C(=O)N[C@@H](CCC(N)=O)C(=O)N[C@@H](CC(N)=O)C(=O)O
REMARK SMILES IDX 24 1 25 2 26 3 5 5 6 6 7 7 8 8 9 10 17 11 18 12 19 13 20 15
REMARK SMILES IDX 21 16 22 19 23 20 10 22 11 23 12 24 16 25 13 26 15 27 14 28
REMARK SMILES IDX 4 29 2 30 1 31 3 32 27 33 33 34 35 35 34 36 36 38 42 39
REMARK SMILES IDX 44 40 43 41 45 43 50 44 51 45 52 46 46 48 47 49 48 50 49 51
REMARK SMILES IDX 37 54 38 55 39 56 40 57 41 58 28 61 29 62 30 63 31 64 32 65
REMARK H PARENT 26 4 6 9 17 14 21 17 21 18 23 21 35 37 44 42 52 47 48 52 48 53
REMARK H PARENT 40 59 40 60 32 66 32 67
ROOT
ATOM      1  C   LEU A   3      20.051  10.088  -6.476  1.00  0.00     0.243 C 
ATOM      2  O   LEU A   3      20.161   9.163  -5.623  1.00  0.00    -0.273 OA
ATOM      3  N   LYS A   4      20.566   9.921  -7.785  1.00  0.00    -0.343 N 
ATOM      4  H   UNL     1      20.401  10.661  -8.506  1.00  0.00     0.164 HD
ENDROOT
BRANCH   1   5
ATOM      5  CA  LEU A   3      19.338  11.356  -6.146  1.00  0.00     0.171 C 
BRANCH   5   6
ATOM      6  N   LEU A   3      18.081  11.022  -5.537  1.00  0.00    -0.343 N 
ATOM      7  C   PHE A   2      16.885  11.746  -5.776  1.00  0.00     0.243 C 
ATOM      8  O   PHE A   2      16.903  12.796  -6.475  1.00  0.00    -0.273 OA
ATOM      9  H   UNL     1      18.154  10.389  -4.717  1.00  0.00     0.164 HD
BRANCH   7  10
ATOM     10  CA  PHE A   2      15.650  11.313  -5.057  1.00  0.00     0.175 C 
BRANCH  10  11
ATOM     11  N   PHE A   2      14.453  11.738  -5.767  1.00  0.00    -0.343 N 
ATOM     12  C   SER A   1      13.913  13.049  -5.637  1.00  0.00     0.239 C 
ATOM     13  O   SER A   1      14.447  13.869  -4.840  1.00  0.00    -0.273 OA
ATOM     14  H   UNL     1      13.864  10.998  -6.208  1.00  0.00     0.164 HD
BRANCH  12  15
ATOM     15  CA  SER A   1      12.655  13.409  -6.387  1.00  0.00     0.167 C 
BRANCH  15  16
ATOM     16  N   SER A   1      12.467  14.861  -6.384  1.00  0.00    -0.318 NA
ATOM     17  H   UNL     1      11.583  15.088  -6.894  1.00  0.00     0.119 HD
ATOM     18  H   UNL     1      12.301  15.171  -5.399  1.00  0.00     0.119 HD
ENDBRANCH  15  16
BRANCH  15  19
ATOM     19  CB  SER A   1      12.699  12.894  -7.844  1.00  0.00     0.184 C 
BRANCH  19  20
ATOM     20  OG  SER A   1      11.440  13.041  -8.441  1.00  0.00    -0.394 OA
ATOM     21  H   UNL     1      11.550  12.779  -9.392  1.00  0.00     0.210 HD
ENDBRANCH  19  20
ENDBRANCH  15  19
ENDBRANCH  12  15
ENDBRANCH  10  11
BRANCH  10  22
ATOM     22  CB  PHE A   2      15.609   9.773  -4.881  1.00  0.00     0.070 C 
BRANCH  22  23
ATOM     23  CG  PHE A   2      14.435   9.292  -4.091  1.00  0.00    -0.045 A 
ATOM     24  CD1 PHE A   2      13.898  10.048  -3.032  1.00  0.00     0.004 A 
ATOM     25  CD2 PHE A   2      13.964   7.991  -4.310  1.00  0.00     0.004 A 
ATOM     26  CE1 PHE A   2      12.866   9.535  -2.258  1.00  0.00     0.000 A 
ATOM     27  CE2 PHE A   2      12.937   7.476  -3.520  1.00  0.00     0.000 A 
ATOM     28  CZ  PHE A   2      12.384   8.251  -2.500  1.00  0.00     0.000 A 
ENDBRANCH  22  23
ENDBRANCH  10  22
ENDBRANCH   7  10
ENDBRANCH   5   6
BRANCH   5  29
ATOM     29  CB  LEU A   3      20.162  12.254  -5.215  1.00  0.00     0.038 C 
BRANCH  29  30
ATOM     30  CG  LEU A   3      20.415  11.680  -3.791  1.00  0.00    -0.015 C 
ATOM     31  CD1 LEU A   3      21.817  12.068  -3.317  1.00  0.00     0.007 C 
ATOM     32  CD2 LEU A   3      19.368  12.170  -2.780  1.00  0.00     0.007 C 
ENDBRANCH  29  30
ENDBRANCH   5  29
ENDBRANCH   1   5
BRANCH   3  33
ATOM     33  CA  LYS A   4      21.350   8.759  -8.148  1.00  0.00     0.171 C 
BRANCH  33  34
ATOM     34  C   LYS A   4      22.715   9.216  -8.525  1.00  0.00     0.243 C 
ATOM     35  N   GLN A   5      23.823   8.730  -7.782  1.00  0.00    -0.343 N 
ATOM     36  O   LYS A   4      22.879  10.032  -9.473  1.00  0.00    -0.273 OA
ATOM     37  H   UNL     1      23.668   8.041  -7.011  1.00  0.00     0.164 HD
BRANCH  35  38
ATOM     38  CA  GLN A   5      25.186   9.133  -8.071  1.00  0.00     0.171 C 
BRANCH  38  39
ATOM     39  C   GLN A   5      25.900   7.975  -8.684  1.00  0.00     0.243 C 
ATOM     40  N   ASN A   6      25.912   7.868 -10.101  1.00  0.00    -0.341 N 
ATOM     41  O   GLN A   5      26.445   7.093  -7.967  1.00  0.00    -0.273 OA
ATOM     42  H   UNL     1      25.488   8.650 -10.650  1.00  0.00     0.164 HD
BRANCH  40  43
ATOM     43  CA  ASN A   6      26.540   6.752 -10.802  1.00  0.00     0.201 C 
BRANCH  43  44
ATOM     44  C   ASN A   6      27.991   6.643 -10.414  1.00  0.00     0.326 C 
ATOM     45  O   ASN A   6      28.794   7.578 -10.677  1.00  0.00    -0.250 OA
BRANCH  44  46
ATOM     46  OXT ASN A   6      28.448   5.500  -9.764  1.00  0.00    -0.480 OA
ATOM     47  H   UNL     1      29.421   5.410  -9.495  1.00  0.00     0.296 HD
ENDBRANCH  44  46
ENDBRANCH  43  44
BRANCH  43  48
ATOM     48  CB  ASN A   6      26.424   6.947 -12.321  1.00  0.00     0.136 C 
BRANCH  48  49
ATOM     49  CG  ASN A   6      25.010   7.181 -12.773  1.00  0.00     0.220 C 
ATOM     50  ND2 ASN A   6      24.754   8.090 -13.833  1.00  0.00    -0.370 N 
ATOM     51  OD1 ASN A   6      24.053   6.557 -12.243  1.00  0.00    -0.275 OA
ATOM     52  H   UNL     1      23.775   8.257 -14.157  1.00  0.00     0.159 HD
ATOM     53  H   UNL     1      25.533   8.600 -14.305  1.00  0.00     0.159 HD
ENDBRANCH  48  49
ENDBRANCH  43  48
ENDBRANCH  40  43
ENDBRANCH  38  39
BRANCH  38  54
ATOM     54  CB  GLN A   5      25.866   9.621  -6.795  1.00  0.00     0.045 C 
BRANCH  54  55
ATOM     55  CG  GLN A   5      25.179  10.876  -6.252  1.00  0.00     0.102 C 
BRANCH  55  56
ATOM     56  CD  GLN A   5      25.832  11.305  -4.979  1.00  0.00     0.217 C 
ATOM     57  NE2 GLN A   5      25.406  10.736  -3.742  1.00  0.00    -0.370 N 
ATOM     58  OE1 GLN A   5      26.778  12.138  -4.999  1.00  0.00    -0.275 OA
ATOM     59  H   UNL     1      24.646  10.020  -3.717  1.00  0.00     0.159 HD
ATOM     60  H   UNL     1      25.858  11.025  -2.847  1.00  0.00     0.159 HD
ENDBRANCH  55  56
ENDBRANCH  54  55
ENDBRANCH  38  54
ENDBRANCH  35  38
ENDBRANCH  33  34
BRANCH  33  61
ATOM     61  CB  LYS A   4      20.658   7.994  -9.279  1.00  0.00     0.035 C 
BRANCH  61  62
ATOM     62  CG  LYS A   4      21.455   6.777  -9.772  1.00  0.00     0.004 C 
BRANCH  62  63
ATOM     63  CD  LYS A   4      21.769   5.770  -8.655  1.00  0.00     0.015 C 
BRANCH  63  64
ATOM     64  CE  LYS A   4      22.375   4.484  -9.238  1.00  0.00     0.077 C 
BRANCH  64  65
ATOM     65  NZ  LYS A   4      22.709   3.529  -8.184  1.00  0.00    -0.330 NA
ATOM     66  H   UNL     1      21.844   3.312  -7.637  1.00  0.00     0.118 HD
ATOM     67  H   UNL     1      23.396   3.972  -7.532  1.00  0.00     0.118 HD
ENDBRANCH  64  65
ENDBRANCH  63  64
ENDBRANCH  62  63
ENDBRANCH  61  62
ENDBRANCH  33  61
ENDBRANCH   3  33
TORSDOF 29
