REMARK SMILES CC(C)C[C@H](NC(=O)[C@H](CC(N)=O)NC(=O)[C@H](Cc1ccccc1)NC(=O)[C@@H](N)CO)C(=O)N[C@@H](CCCNC(=N)N)C(=O)N[C@@H](CO)C(=O)O
REMARK SMILES IDX 7 1 8 2 6 3 9 5 14 6 15 7 16 8 17 10 25 11 26 12 27 13 28 15
REMARK SMILES IDX 29 16 30 19 31 20 18 22 19 23 20 24 24 25 21 26 23 27 22 28
REMARK SMILES IDX 10 29 11 30 12 31 13 32 5 35 32 36 34 37 33 38 35 40 43 41
REMARK SMILES IDX 45 42 44 43 46 45 49 46 50 47 51 48 47 50 48 51 36 53 37 54
REMARK SMILES IDX 38 55 39 56 40 57 42 58 41 62 4 64 2 65 1 66 3 67
REMARK H PARENT 6 4 14 9 25 14 29 17 29 18 31 21 12 33 12 34 34 39 45 44 51 49
REMARK H PARENT 48 52 39 59 42 60 42 61 41 63
ROOT
ATOM      1  C   ASN A   3      20.052  10.096  -6.459  1.00  0.00     0.243 C 
ATOM      2  O   ASN A   3      20.172   9.184  -5.594  1.00  0.00    -0.273 OA
ATOM      3  N   LEU A   4      20.562   9.921  -7.772  1.00  0.00    -0.342 N 
ATOM      4  H   UNL     1      20.394  10.658  -8.494  1.00  0.00     0.164 HD
ENDROOT
BRANCH   1   5
ATOM      5  CA  ASN A   3      19.346  11.368  -6.131  1.00  0.00     0.180 C 
BRANCH   5   6
ATOM      6  N   ASN A   3      18.089  11.044  -5.509  1.00  0.00    -0.342 N 
ATOM      7  C   PHE A   2      16.887  11.749  -5.775  1.00  0.00     0.243 C 
ATOM      8  O   PHE A   2      16.903  12.793  -6.483  1.00  0.00    -0.273 OA
ATOM      9  H   UNL     1      18.164  10.482  -4.636  1.00  0.00     0.164 HD
BRANCH   7  10
ATOM     10  CA  PHE A   2      15.651  11.313  -5.060  1.00  0.00     0.175 C 
BRANCH  10  11
ATOM     11  N   PHE A   2      14.453  11.740  -5.770  1.00  0.00    -0.343 N 
ATOM     12  C   SER A   1      13.914  13.050  -5.636  1.00  0.00     0.239 C 
ATOM     13  O   SER A   1      14.449  13.868  -4.838  1.00  0.00    -0.273 OA
ATOM     14  H   UNL     1      13.866  11.000  -6.212  1.00  0.00     0.164 HD
BRANCH  12  15
ATOM     15  CA  SER A   1      12.654  13.411  -6.385  1.00  0.00     0.167 C 
BRANCH  15  16
ATOM     16  N   SER A   1      12.468  14.864  -6.382  1.00  0.00    -0.318 NA
ATOM     17  H   UNL     1      11.564  15.088  -6.857  1.00  0.00     0.119 HD
ATOM     18  H   UNL     1      12.337  15.180  -5.393  1.00  0.00     0.119 HD
ENDBRANCH  15  16
BRANCH  15  19
ATOM     19  CB  SER A   1      12.696  12.894  -7.842  1.00  0.00     0.184 C 
BRANCH  19  20
ATOM     20  OG  SER A   1      11.439  13.036  -8.447  1.00  0.00    -0.394 OA
ATOM     21  H   UNL     1      11.454  13.890  -8.953  1.00  0.00     0.210 HD
ENDBRANCH  19  20
ENDBRANCH  15  19
ENDBRANCH  12  15
ENDBRANCH  10  11
BRANCH  10  22
ATOM     22  CB  PHE A   2      15.612   9.774  -4.889  1.00  0.00     0.070 C 
BRANCH  22  23
ATOM     23  CG  PHE A   2      14.442   9.290  -4.091  1.00  0.00    -0.045 A 
ATOM     24  CD1 PHE A   2      13.902  10.047  -3.033  1.00  0.00     0.004 A 
ATOM     25  CD2 PHE A   2      13.968   7.990  -4.310  1.00  0.00     0.004 A 
ATOM     26  CE1 PHE A   2      12.868   9.536  -2.260  1.00  0.00     0.000 A 
ATOM     27  CE2 PHE A   2      12.939   7.477  -3.521  1.00  0.00     0.000 A 
ATOM     28  CZ  PHE A   2      12.386   8.252  -2.502  1.00  0.00     0.000 A 
ENDBRANCH  22  23
ENDBRANCH  10  22
ENDBRANCH   7  10
ENDBRANCH   5   6
BRANCH   5  29
ATOM     29  CB  ASN A   3      20.177  12.263  -5.202  1.00  0.00     0.134 C 
BRANCH  29  30
ATOM     30  CG  ASN A   3      20.419  11.673  -3.835  1.00  0.00     0.220 C 
ATOM     31  ND2 ASN A   3      19.496  11.906  -2.770  1.00  0.00    -0.370 N 
ATOM     32  OD1 ASN A   3      21.441  10.966  -3.629  1.00  0.00    -0.275 OA
ATOM     33  H   UNL     1      19.663  11.490  -1.827  1.00  0.00     0.159 HD
ATOM     34  H   UNL     1      18.641  12.486  -2.923  1.00  0.00     0.159 HD
ENDBRANCH  29  30
ENDBRANCH   5  29
ENDBRANCH   1   5
BRANCH   3  35
ATOM     35  CA  LEU A   4      21.348   8.760  -8.139  1.00  0.00     0.171 C 
BRANCH  35  36
ATOM     36  C   LEU A   4      22.713   9.217  -8.520  1.00  0.00     0.243 C 
ATOM     37  N   ARG A   5      23.823   8.720  -7.787  1.00  0.00    -0.343 N 
ATOM     38  O   LEU A   4      22.875  10.034  -9.467  1.00  0.00    -0.273 OA
ATOM     39  H   UNL     1      23.668   8.030  -7.017  1.00  0.00     0.164 HD
BRANCH  37  40
ATOM     40  CA  ARG A   5      25.186   9.120  -8.078  1.00  0.00     0.171 C 
BRANCH  40  41
ATOM     41  C   ARG A   5      25.897   7.963  -8.692  1.00  0.00     0.243 C 
ATOM     42  N   SER A   6      25.886   7.840 -10.110  1.00  0.00    -0.339 N 
ATOM     43  O   ARG A   5      26.455   7.090  -7.974  1.00  0.00    -0.273 OA
ATOM     44  H   UNL     1      25.373   8.566 -10.663  1.00  0.00     0.164 HD
BRANCH  42  45
ATOM     45  CA  SER A   6      26.545   6.744 -10.813  1.00  0.00     0.218 C 
BRANCH  45  46
ATOM     46  C   SER A   6      27.994   6.652 -10.414  1.00  0.00     0.328 C 
ATOM     47  O   SER A   6      28.791   7.589 -10.685  1.00  0.00    -0.250 OA
BRANCH  46  48
ATOM     48  OXT SER A   6      28.456   5.523  -9.745  1.00  0.00    -0.480 OA
ATOM     49  H   UNL     1      29.427   5.444  -9.468  1.00  0.00     0.296 HD
ENDBRANCH  46  48
ENDBRANCH  45  46
BRANCH  45  50
ATOM     50  CB  SER A   6      26.414   6.955 -12.329  1.00  0.00     0.193 C 
BRANCH  50  51
ATOM     51  OG  SER A   6      27.011   5.898 -13.032  1.00  0.00    -0.394 OA
ATOM     52  H   UNL     1      26.399   5.121 -12.950  1.00  0.00     0.210 HD
ENDBRANCH  50  51
ENDBRANCH  45  50
ENDBRANCH  42  45
ENDBRANCH  40  41
BRANCH  40  53
ATOM     53  CB  ARG A   5      25.864   9.604  -6.801  1.00  0.00     0.037 C 
BRANCH  53  54
ATOM     54  CG  ARG A   5      25.166  10.858  -6.272  1.00  0.00     0.024 C 
BRANCH  54  55
ATOM     55  CD  ARG A   5      25.841  11.389  -5.015  1.00  0.00     0.116 C 
BRANCH  55  56
ATOM     56  NE  ARG A   5      25.377  10.686  -3.821  1.00  0.00    -0.357 N 
ATOM     57  CZ  ARG A   5      25.469  11.281  -2.527  1.00  0.00     0.185 C 
ATOM     58  NH2 ARG A   5      26.109  12.545  -2.352  1.00  0.00    -0.370 N 
ATOM     59  H   UNL     1      24.895   9.762  -3.913  1.00  0.00     0.163 HD
ATOM     60  H   UNL     1      26.698  12.981  -3.094  1.00  0.00     0.159 HD
ATOM     61  H   UNL     1      26.084  13.022  -1.423  1.00  0.00     0.159 HD
BRANCH  57  62
ATOM     62  NH1 ARG A   5      24.955  10.671  -1.507  1.00  0.00    -0.270 NA
ATOM     63  H   UNL     1      24.998  11.075  -0.545  1.00  0.00     0.191 HD
ENDBRANCH  57  62
ENDBRANCH  55  56
ENDBRANCH  54  55
ENDBRANCH  53  54
ENDBRANCH  40  53
ENDBRANCH  37  40
ENDBRANCH  35  36
BRANCH  35  64
ATOM     64  CB  LEU A   4      20.656   7.999  -9.272  1.00  0.00     0.038 C 
BRANCH  64  65
ATOM     65  CG  LEU A   4      21.449   6.770  -9.770  1.00  0.00    -0.015 C 
ATOM     66  CD1 LEU A   4      21.763   5.779  -8.640  1.00  0.00     0.007 C 
ATOM     67  CD2 LEU A   4      20.659   6.066 -10.876  1.00  0.00     0.007 C 
ENDBRANCH  64  65
ENDBRANCH  35  64
ENDBRANCH   3  35
TORSDOF 28
