REMARK SMILES CC(C)C[C@H](NC(=O)[C@H](CCC(N)=O)NC(=O)[C@H](Cc1ccccc1)NC(=O)[C@@H](N)CO)C(=O)N[C@@H](CCCNC(=N)N)C(=O)N[C@@H](C)C(=O)O
REMARK SMILES IDX 7 1 8 2 6 3 9 5 15 6 16 7 17 8 18 10 26 11 27 12 28 13 29 15
REMARK SMILES IDX 30 16 31 19 32 20 19 22 20 23 21 24 25 25 22 26 24 27 23 28
REMARK SMILES IDX 10 29 11 30 12 31 13 32 14 33 5 36 33 37 35 38 34 39 36 41
REMARK SMILES IDX 44 42 46 43 45 44 47 46 48 47 49 48 50 49 51 50 37 52 38 53
REMARK SMILES IDX 39 54 40 55 41 56 43 57 42 61 4 63 2 64 1 65 3 66
REMARK H PARENT 6 4 15 9 26 14 30 17 30 18 32 21 13 34 13 35 35 40 46 45 51 51
REMARK H PARENT 40 58 43 59 43 60 42 62
ROOT
ATOM      1  C   GLN A   3      20.039  10.085  -6.470  1.00  0.00     0.243 C 
ATOM      2  O   GLN A   3      20.156   9.167  -5.611  1.00  0.00    -0.273 OA
ATOM      3  N   LEU A   4      20.564   9.920  -7.776  1.00  0.00    -0.343 N 
ATOM      4  H   UNL     1      20.402  10.661  -8.497  1.00  0.00     0.164 HD
ENDROOT
BRANCH   1   5
ATOM      5  CA  GLN A   3      19.337  11.359  -6.141  1.00  0.00     0.171 C 
BRANCH   5   6
ATOM      6  N   GLN A   3      18.086  11.050  -5.500  1.00  0.00    -0.342 N 
ATOM      7  C   PHE A   2      16.884  11.751  -5.773  1.00  0.00     0.243 C 
ATOM      8  O   PHE A   2      16.900  12.793  -6.484  1.00  0.00    -0.273 OA
ATOM      9  H   UNL     1      18.159  10.508  -4.614  1.00  0.00     0.164 HD
BRANCH   7  10
ATOM     10  CA  PHE A   2      15.650  11.314  -5.059  1.00  0.00     0.175 C 
BRANCH  10  11
ATOM     11  N   PHE A   2      14.453  11.740  -5.769  1.00  0.00    -0.343 N 
ATOM     12  C   SER A   1      13.913  13.050  -5.638  1.00  0.00     0.239 C 
ATOM     13  O   SER A   1      14.441  13.870  -4.837  1.00  0.00    -0.273 OA
ATOM     14  H   UNL     1      13.865  11.000  -6.209  1.00  0.00     0.164 HD
BRANCH  12  15
ATOM     15  CA  SER A   1      12.660  13.410  -6.393  1.00  0.00     0.167 C 
BRANCH  15  16
ATOM     16  N   SER A   1      12.471  14.862  -6.379  1.00  0.00    -0.318 NA
ATOM     17  H   UNL     1      11.538  15.088  -6.795  1.00  0.00     0.119 HD
ATOM     18  H   UNL     1      13.201  15.317  -6.976  1.00  0.00     0.119 HD
ENDBRANCH  15  16
BRANCH  15  19
ATOM     19  CB  SER A   1      12.691  12.880  -7.847  1.00  0.00     0.184 C 
BRANCH  19  20
ATOM     20  OG  SER A   1      11.436  13.052  -8.443  1.00  0.00    -0.394 OA
ATOM     21  H   UNL     1      11.538  12.777  -9.391  1.00  0.00     0.210 HD
ENDBRANCH  19  20
ENDBRANCH  15  19
ENDBRANCH  12  15
ENDBRANCH  10  11
BRANCH  10  22
ATOM     22  CB  PHE A   2      15.612   9.774  -4.891  1.00  0.00     0.070 C 
BRANCH  22  23
ATOM     23  CG  PHE A   2      14.443   9.289  -4.090  1.00  0.00    -0.045 A 
ATOM     24  CD1 PHE A   2      13.903  10.047  -3.033  1.00  0.00     0.004 A 
ATOM     25  CD2 PHE A   2      13.968   7.990  -4.310  1.00  0.00     0.004 A 
ATOM     26  CE1 PHE A   2      12.869   9.535  -2.260  1.00  0.00     0.000 A 
ATOM     27  CE2 PHE A   2      12.939   7.477  -3.521  1.00  0.00     0.000 A 
ATOM     28  CZ  PHE A   2      12.386   8.252  -2.502  1.00  0.00     0.000 A 
ENDBRANCH  22  23
ENDBRANCH  10  22
ENDBRANCH   7  10
ENDBRANCH   5   6
BRANCH   5  29
ATOM     29  CB  GLN A   3      20.190  12.255  -5.237  1.00  0.00     0.045 C 
BRANCH  29  30
ATOM     30  CG  GLN A   3      20.401  11.721  -3.804  1.00  0.00     0.102 C 
BRANCH  30  31
ATOM     31  CD  GLN A   3      21.775  12.051  -3.319  1.00  0.00     0.217 C 
ATOM     32  NE2 GLN A   3      22.158  13.402  -3.069  1.00  0.00    -0.370 N 
ATOM     33  OE1 GLN A   3      22.600  11.121  -3.138  1.00  0.00    -0.275 OA
ATOM     34  H   UNL     1      23.124  13.623  -2.740  1.00  0.00     0.159 HD
ATOM     35  H   UNL     1      21.480  14.183  -3.215  1.00  0.00     0.159 HD
ENDBRANCH  30  31
ENDBRANCH  29  30
ENDBRANCH   5  29
ENDBRANCH   1   5
BRANCH   3  36
ATOM     36  CA  LEU A   4      21.349   8.759  -8.142  1.00  0.00     0.171 C 
BRANCH  36  37
ATOM     37  C   LEU A   4      22.714   9.216  -8.522  1.00  0.00     0.243 C 
ATOM     38  N   ARG A   5      23.823   8.721  -7.788  1.00  0.00    -0.343 N 
ATOM     39  O   LEU A   4      22.877  10.034  -9.469  1.00  0.00    -0.273 OA
ATOM     40  H   UNL     1      23.668   8.032  -7.016  1.00  0.00     0.164 HD
BRANCH  38  41
ATOM     41  CA  ARG A   5      25.186   9.121  -8.078  1.00  0.00     0.171 C 
BRANCH  41  42
ATOM     42  C   ARG A   5      25.897   7.964  -8.692  1.00  0.00     0.243 C 
ATOM     43  N   ALA A   6      25.884   7.840 -10.110  1.00  0.00    -0.341 N 
ATOM     44  O   ARG A   5      26.456   7.091  -7.974  1.00  0.00    -0.273 OA
ATOM     45  H   UNL     1      25.367   8.563 -10.662  1.00  0.00     0.164 HD
BRANCH  43  46
ATOM     46  CA  ALA A   6      26.544   6.745 -10.813  1.00  0.00     0.189 C 
ATOM     47  CB  ALA A   6      26.419   6.955 -12.323  1.00  0.00     0.043 C 
BRANCH  46  48
ATOM     48  C   ALA A   6      27.993   6.652 -10.418  1.00  0.00     0.325 C 
ATOM     49  O   ALA A   6      28.790   7.589 -10.686  1.00  0.00    -0.250 OA
BRANCH  48  50
ATOM     50  OXT ALA A   6      28.455   5.520  -9.752  1.00  0.00    -0.480 OA
ATOM     51  H   UNL     1      29.427   5.440  -9.477  1.00  0.00     0.296 HD
ENDBRANCH  48  50
ENDBRANCH  46  48
ENDBRANCH  43  46
ENDBRANCH  41  42
BRANCH  41  52
ATOM     52  CB  ARG A   5      25.865   9.605  -6.800  1.00  0.00     0.037 C 
BRANCH  52  53
ATOM     53  CG  ARG A   5      25.163  10.855  -6.267  1.00  0.00     0.024 C 
BRANCH  53  54
ATOM     54  CD  ARG A   5      25.843  11.392  -5.015  1.00  0.00     0.116 C 
BRANCH  54  55
ATOM     55  NE  ARG A   5      25.401  10.680  -3.818  1.00  0.00    -0.357 N 
ATOM     56  CZ  ARG A   5      25.488  11.279  -2.525  1.00  0.00     0.185 C 
ATOM     57  NH2 ARG A   5      26.110  12.551  -2.353  1.00  0.00    -0.370 N 
ATOM     58  H   UNL     1      24.950   9.741  -3.906  1.00  0.00     0.163 HD
ATOM     59  H   UNL     1      26.695  12.991  -3.095  1.00  0.00     0.159 HD
ATOM     60  H   UNL     1      26.073  13.033  -1.427  1.00  0.00     0.159 HD
BRANCH  56  61
ATOM     61  NH1 ARG A   5      24.977  10.668  -1.503  1.00  0.00    -0.270 NA
ATOM     62  H   UNL     1      25.012  11.076  -0.543  1.00  0.00     0.191 HD
ENDBRANCH  56  61
ENDBRANCH  54  55
ENDBRANCH  53  54
ENDBRANCH  52  53
ENDBRANCH  41  52
ENDBRANCH  38  41
ENDBRANCH  36  37
BRANCH  36  63
ATOM     63  CB  LEU A   4      20.657   7.999  -9.275  1.00  0.00     0.038 C 
BRANCH  63  64
ATOM     64  CG  LEU A   4      21.450   6.769  -9.771  1.00  0.00    -0.015 C 
ATOM     65  CD1 LEU A   4      21.763   5.778  -8.640  1.00  0.00     0.007 C 
ATOM     66  CD2 LEU A   4      20.659   6.065 -10.877  1.00  0.00     0.007 C 
ENDBRANCH  63  64
ENDBRANCH  36  63
ENDBRANCH   3  36
TORSDOF 27
