REMARK SMILES CC(C)C[C@H](NC(=O)[C@H](Cc1c[nH]cn1)NC(=O)[C@H](Cc1ccccc1)NC(=O)[C@@H](N)CO)C(=O)N[C@@H](CCCNC(=N)N)C(=O)NCC(=O)O
REMARK SMILES IDX 7 1 8 2 6 3 9 5 16 6 17 7 18 8 19 10 27 11 28 12 29 13 30 15
REMARK SMILES IDX 31 16 32 19 33 20 20 22 21 23 22 24 26 25 23 26 25 27 24 28
REMARK SMILES IDX 10 29 11 30 15 31 12 32 14 33 13 34 5 36 34 37 36 38 35 39
REMARK SMILES IDX 37 41 45 42 47 43 46 44 48 46 49 47 50 48 51 49 38 51 39 52
REMARK SMILES IDX 40 53 41 54 42 55 44 56 43 60 4 62 2 63 1 64 3 65
REMARK H PARENT 6 4 16 9 27 14 31 17 31 18 33 21 13 35 36 40 47 45 51 50 41 57
REMARK H PARENT 44 58 44 59 43 61
ROOT
ATOM      1  C   HIS A   3      20.051  10.096  -6.459  1.00  0.00     0.243 C 
ATOM      2  O   HIS A   3      20.169   9.182  -5.595  1.00  0.00    -0.273 OA
ATOM      3  N   LEU A   4      20.563   9.921  -7.771  1.00  0.00    -0.342 N 
ATOM      4  H   UNL     1      20.395  10.659  -8.493  1.00  0.00     0.164 HD
ENDROOT
BRANCH   1   5
ATOM      5  CA  HIS A   3      19.346  11.368  -6.131  1.00  0.00     0.177 C 
BRANCH   5   6
ATOM      6  N   HIS A   3      18.089  11.044  -5.508  1.00  0.00    -0.342 N 
ATOM      7  C   PHE A   2      16.887  11.749  -5.774  1.00  0.00     0.243 C 
ATOM      8  O   PHE A   2      16.903  12.793  -6.483  1.00  0.00    -0.273 OA
ATOM      9  H   UNL     1      18.164  10.485  -4.633  1.00  0.00     0.164 HD
BRANCH   7  10
ATOM     10  CA  PHE A   2      15.651  11.313  -5.060  1.00  0.00     0.175 C 
BRANCH  10  11
ATOM     11  N   PHE A   2      14.453  11.740  -5.770  1.00  0.00    -0.343 N 
ATOM     12  C   SER A   1      13.914  13.050  -5.636  1.00  0.00     0.239 C 
ATOM     13  O   SER A   1      14.449  13.868  -4.838  1.00  0.00    -0.273 OA
ATOM     14  H   UNL     1      13.865  11.000  -6.212  1.00  0.00     0.164 HD
BRANCH  12  15
ATOM     15  CA  SER A   1      12.654  13.411  -6.385  1.00  0.00     0.167 C 
BRANCH  15  16
ATOM     16  N   SER A   1      12.468  14.864  -6.382  1.00  0.00    -0.318 NA
ATOM     17  H   UNL     1      12.337  15.180  -5.393  1.00  0.00     0.119 HD
ATOM     18  H   UNL     1      11.564  15.088  -6.857  1.00  0.00     0.119 HD
ENDBRANCH  15  16
BRANCH  15  19
ATOM     19  CB  SER A   1      12.696  12.894  -7.842  1.00  0.00     0.184 C 
BRANCH  19  20
ATOM     20  OG  SER A   1      11.439  13.036  -8.447  1.00  0.00    -0.394 OA
ATOM     21  H   UNL     1      11.454  13.890  -8.953  1.00  0.00     0.210 HD
ENDBRANCH  19  20
ENDBRANCH  15  19
ENDBRANCH  12  15
ENDBRANCH  10  11
BRANCH  10  22
ATOM     22  CB  PHE A   2      15.612   9.774  -4.890  1.00  0.00     0.070 C 
BRANCH  22  23
ATOM     23  CG  PHE A   2      14.442   9.290  -4.090  1.00  0.00    -0.045 A 
ATOM     24  CD1 PHE A   2      13.903  10.047  -3.033  1.00  0.00     0.004 A 
ATOM     25  CD2 PHE A   2      13.968   7.990  -4.310  1.00  0.00     0.004 A 
ATOM     26  CE1 PHE A   2      12.869   9.536  -2.260  1.00  0.00     0.000 A 
ATOM     27  CE2 PHE A   2      12.939   7.477  -3.521  1.00  0.00     0.000 A 
ATOM     28  CZ  PHE A   2      12.386   8.252  -2.502  1.00  0.00     0.000 A 
ENDBRANCH  22  23
ENDBRANCH  10  22
ENDBRANCH   7  10
ENDBRANCH   5   6
BRANCH   5  29
ATOM     29  CB  HIS A   3      20.176  12.265  -5.201  1.00  0.00     0.093 C 
BRANCH  29  30
ATOM     30  CG  HIS A   3      20.426  11.673  -3.838  1.00  0.00     0.061 A 
ATOM     31  ND1 HIS A   3      19.584  11.800  -2.792  1.00  0.00    -0.242 NA
ATOM     32  CD2 HIS A   3      21.525  10.931  -3.467  1.00  0.00     0.107 A 
ATOM     33  CE1 HIS A   3      20.198  11.121  -1.799  1.00  0.00     0.196 A 
ATOM     34  NE2 HIS A   3      21.373  10.585  -2.181  1.00  0.00    -0.351 N 
ATOM     35  H   UNL     1      22.027  10.018  -1.598  1.00  0.00     0.167 HD
ENDBRANCH  29  30
ENDBRANCH   5  29
ENDBRANCH   1   5
BRANCH   3  36
ATOM     36  CA  LEU A   4      21.348   8.760  -8.138  1.00  0.00     0.171 C 
BRANCH  36  37
ATOM     37  C   LEU A   4      22.712   9.217  -8.522  1.00  0.00     0.243 C 
ATOM     38  N   ARG A   5      23.824   8.720  -7.792  1.00  0.00    -0.343 N 
ATOM     39  O   LEU A   4      22.874  10.035  -9.469  1.00  0.00    -0.273 OA
ATOM     40  H   UNL     1      23.671   8.031  -7.021  1.00  0.00     0.164 HD
BRANCH  38  41
ATOM     41  CA  ARG A   5      25.186   9.120  -8.087  1.00  0.00     0.171 C 
BRANCH  41  42
ATOM     42  C   ARG A   5      25.897   7.960  -8.698  1.00  0.00     0.243 C 
ATOM     43  N   GLY A   6      25.891   7.823 -10.117  1.00  0.00    -0.343 N 
ATOM     44  O   ARG A   5      26.454   7.092  -7.973  1.00  0.00    -0.273 OA
ATOM     45  H   UNL     1      25.398   8.536 -10.701  1.00  0.00     0.164 HD
BRANCH  43  46
ATOM     46  CA  GLY A   6      26.551   6.716 -10.794  1.00  0.00     0.238 C 
BRANCH  46  47
ATOM     47  C   GLY A   6      28.000   6.644 -10.414  1.00  0.00     0.322 C 
ATOM     48  O   GLY A   6      28.781   7.588 -10.704  1.00  0.00    -0.250 OA
BRANCH  47  49
ATOM     49  OXT GLY A   6      28.483   5.528  -9.737  1.00  0.00    -0.480 OA
ATOM     50  H   UNL     1      29.458   5.464  -9.471  1.00  0.00     0.296 HD
ENDBRANCH  47  49
ENDBRANCH  46  47
ENDBRANCH  43  46
ENDBRANCH  41  42
BRANCH  41  51
ATOM     51  CB  ARG A   5      25.865   9.606  -6.808  1.00  0.00     0.037 C 
BRANCH  51  52
ATOM     52  CG  ARG A   5      25.165  10.856  -6.274  1.00  0.00     0.024 C 
BRANCH  52  53
ATOM     53  CD  ARG A   5      25.841  11.388  -5.017  1.00  0.00     0.116 C 
BRANCH  53  54
ATOM     54  NE  ARG A   5      25.378  10.685  -3.822  1.00  0.00    -0.357 N 
ATOM     55  CZ  ARG A   5      25.468  11.281  -2.528  1.00  0.00     0.185 C 
ATOM     56  NH2 ARG A   5      26.107  12.545  -2.353  1.00  0.00    -0.370 N 
ATOM     57  H   UNL     1      24.902   9.758  -3.913  1.00  0.00     0.163 HD
ATOM     58  H   UNL     1      26.081  13.023  -1.425  1.00  0.00     0.159 HD
ATOM     59  H   UNL     1      26.696  12.981  -3.095  1.00  0.00     0.159 HD
BRANCH  55  60
ATOM     60  NH1 ARG A   5      24.955  10.671  -1.508  1.00  0.00    -0.270 NA
ATOM     61  H   UNL     1      24.996  11.075  -0.546  1.00  0.00     0.191 HD
ENDBRANCH  55  60
ENDBRANCH  53  54
ENDBRANCH  52  53
ENDBRANCH  51  52
ENDBRANCH  41  51
ENDBRANCH  38  41
ENDBRANCH  36  37
BRANCH  36  62
ATOM     62  CB  LEU A   4      20.655   7.999  -9.271  1.00  0.00     0.038 C 
BRANCH  62  63
ATOM     63  CG  LEU A   4      21.449   6.771  -9.770  1.00  0.00    -0.015 C 
ATOM     64  CD1 LEU A   4      21.763   5.779  -8.639  1.00  0.00     0.007 C 
ATOM     65  CD2 LEU A   4      20.658   6.066 -10.876  1.00  0.00     0.007 C 
ENDBRANCH  62  63
ENDBRANCH  36  62
ENDBRANCH   3  36
TORSDOF 26
