REMARK SMILES CC(C)C[C@H](NC(=O)[C@@H](NC(=O)[C@@H](N)CO)C(C)C)C(=O)NCC(=O)N[C@@H](CCCNC(=N)N)C(=O)N[C@@H](CC(N)=O)C(=O)O
REMARK SMILES IDX 20 1 21 2 22 3 5 5 6 6 7 7 8 8 9 10 10 11 11 12 12 13 13 15
REMARK SMILES IDX 14 16 15 19 16 20 17 22 18 23 19 24 4 25 2 26 1 27 3 28
REMARK SMILES IDX 23 29 24 30 26 31 25 32 27 34 35 35 37 36 36 37 38 39 43 40
REMARK SMILES IDX 44 41 45 42 39 44 40 45 41 46 42 47 28 50 29 51 30 52 31 53
REMARK SMILES IDX 32 54 34 55 33 59
REMARK H PARENT 22 4 6 9 10 14 14 17 14 18 16 21 26 33 37 38 45 43 41 48 41 49
REMARK H PARENT 31 56 34 57 34 58 33 60
ROOT
ATOM      1  C   LEU A   3       1.668  -0.546   0.238  1.00  0.00     0.243 C 
ATOM      2  O   LEU A   3       1.688  -0.865   1.460  1.00  0.00    -0.273 OA
ATOM      3  N   GLY A   4       0.411  -0.409  -0.440  1.00  0.00    -0.345 N 
ATOM      4  H   UNL     1       0.404  -0.003  -1.404  1.00  0.00     0.164 HD
ENDROOT
BRANCH   1   5
ATOM      5  CA  LEU A   3       2.956  -0.281  -0.508  1.00  0.00     0.171 C 
BRANCH   5   6
ATOM      6  N   LEU A   3       4.119  -0.292   0.388  1.00  0.00    -0.343 N 
ATOM      7  C   VAL A   2       5.314   0.447   0.097  1.00  0.00     0.243 C 
ATOM      8  O   VAL A   2       5.351   1.228  -0.893  1.00  0.00    -0.273 OA
ATOM      9  H   UNL     1       4.147  -0.971   1.182  1.00  0.00     0.164 HD
BRANCH   7  10
ATOM     10  CA  VAL A   2       6.523   0.316   0.993  1.00  0.00     0.173 C 
BRANCH  10  11
ATOM     11  N   VAL A   2       7.756   0.390   0.198  1.00  0.00    -0.343 N 
ATOM     12  C   SER A   1       8.120  -0.642  -0.739  1.00  0.00     0.239 C 
ATOM     13  O   SER A   1       7.387  -1.661  -0.867  1.00  0.00    -0.273 OA
ATOM     14  H   UNL     1       8.419   1.183   0.351  1.00  0.00     0.164 HD
BRANCH  12  15
ATOM     15  CA  SER A   1       9.375  -0.534  -1.578  1.00  0.00     0.167 C 
BRANCH  15  16
ATOM     16  N   SER A   1       9.436   0.731  -2.315  1.00  0.00    -0.318 NA
ATOM     17  H   UNL     1       9.438   1.538  -1.653  1.00  0.00     0.119 HD
ATOM     18  H   UNL     1       8.574   0.818  -2.901  1.00  0.00     0.119 HD
ENDBRANCH  15  16
BRANCH  15  19
ATOM     19  CB  SER A   1      10.648  -0.749  -0.740  1.00  0.00     0.184 C 
BRANCH  19  20
ATOM     20  OG  SER A   1      10.791   0.239   0.246  1.00  0.00    -0.394 OA
ATOM     21  H   UNL     1      11.312   0.982  -0.158  1.00  0.00     0.210 HD
ENDBRANCH  19  20
ENDBRANCH  15  19
ENDBRANCH  12  15
ENDBRANCH  10  11
BRANCH  10  22
ATOM     22  CB  VAL A   2       6.526   1.375   2.135  1.00  0.00     0.015 C 
ATOM     23  CG1 VAL A   2       6.408   2.823   1.625  1.00  0.00     0.010 C 
ATOM     24  CG2 VAL A   2       5.426   1.091   3.168  1.00  0.00     0.010 C 
ENDBRANCH  10  22
ENDBRANCH   7  10
ENDBRANCH   5   6
BRANCH   5  25
ATOM     25  CB  LEU A   3       3.168  -1.250  -1.698  1.00  0.00     0.038 C 
BRANCH  25  26
ATOM     26  CG  LEU A   3       3.689  -2.666  -1.334  1.00  0.00    -0.015 C 
ATOM     27  CD1 LEU A   3       4.089  -3.416  -2.613  1.00  0.00     0.007 C 
ATOM     28  CD2 LEU A   3       2.652  -3.491  -0.557  1.00  0.00     0.007 C 
ENDBRANCH  25  26
ENDBRANCH   5  25
ENDBRANCH   1   5
BRANCH   3  29
ATOM     29  CA  GLY A   4      -0.840  -0.834   0.189  1.00  0.00     0.216 C 
BRANCH  29  30
ATOM     30  C   GLY A   4      -2.015  -0.610  -0.722  1.00  0.00     0.240 C 
ATOM     31  N   ARG A   5      -3.232  -0.050  -0.205  1.00  0.00    -0.343 N 
ATOM     32  O   GLY A   4      -1.942  -0.967  -1.930  1.00  0.00    -0.273 OA
ATOM     33  H   UNL     1      -3.306   0.093   0.828  1.00  0.00     0.164 HD
BRANCH  31  34
ATOM     34  CA  ARG A   5      -4.424   0.134  -1.044  1.00  0.00     0.171 C 
BRANCH  34  35
ATOM     35  C   ARG A   5      -5.305   1.254  -0.538  1.00  0.00     0.243 C 
ATOM     36  N   ASN A   6      -6.391   1.724  -1.352  1.00  0.00    -0.341 N 
ATOM     37  O   ARG A   5      -5.083   1.786   0.585  1.00  0.00    -0.273 OA
ATOM     38  H   UNL     1      -6.477   1.353  -2.326  1.00  0.00     0.164 HD
BRANCH  36  39
ATOM     39  CA  ASN A   6      -7.463   2.579  -0.837  1.00  0.00     0.201 C 
BRANCH  39  40
ATOM     40  C   ASN A   6      -8.719   1.765  -0.675  1.00  0.00     0.326 C 
ATOM     41  O   ASN A   6      -9.134   1.041  -1.619  1.00  0.00    -0.250 OA
BRANCH  40  42
ATOM     42  OXT ASN A   6      -9.446   1.846   0.507  1.00  0.00    -0.480 OA
ATOM     43  H   UNL     1     -10.301   1.318   0.626  1.00  0.00     0.296 HD
ENDBRANCH  40  42
ENDBRANCH  39  40
BRANCH  39  44
ATOM     44  CB  ASN A   6      -7.687   3.761  -1.793  1.00  0.00     0.136 C 
BRANCH  44  45
ATOM     45  CG  ASN A   6      -8.698   4.732  -1.251  1.00  0.00     0.220 C 
ATOM     46  ND2 ASN A   6      -8.338   5.647  -0.215  1.00  0.00    -0.370 N 
ATOM     47  OD1 ASN A   6      -9.878   4.721  -1.692  1.00  0.00    -0.275 OA
ATOM     48  H   UNL     1      -9.045   6.312   0.170  1.00  0.00     0.159 HD
ATOM     49  H   UNL     1      -7.368   5.661   0.171  1.00  0.00     0.159 HD
ENDBRANCH  44  45
ENDBRANCH  39  44
ENDBRANCH  36  39
ENDBRANCH  34  35
BRANCH  34  50
ATOM     50  CB  ARG A   5      -5.201  -1.196  -1.203  1.00  0.00     0.037 C 
BRANCH  50  51
ATOM     51  CG  ARG A   5      -5.501  -1.960   0.103  1.00  0.00     0.024 C 
BRANCH  51  52
ATOM     52  CD  ARG A   5      -6.625  -1.328   0.937  1.00  0.00     0.116 C 
BRANCH  52  53
ATOM     53  NE  ARG A   5      -7.009  -2.209   2.042  1.00  0.00    -0.357 N 
ATOM     54  CZ  ARG A   5      -8.045  -1.886   2.987  1.00  0.00     0.185 C 
ATOM     55  NH2 ARG A   5      -8.368  -2.815   4.021  1.00  0.00    -0.370 N 
ATOM     56  H   UNL     1      -6.509  -3.119   2.167  1.00  0.00     0.163 HD
ATOM     57  H   UNL     1      -7.864  -3.727   4.093  1.00  0.00     0.159 HD
ATOM     58  H   UNL     1      -9.124  -2.603   4.709  1.00  0.00     0.159 HD
BRANCH  54  59
ATOM     59  NH1 ARG A   5      -8.694  -0.764   2.926  1.00  0.00    -0.270 NA
ATOM     60  H   UNL     1      -8.512  -0.034   2.205  1.00  0.00     0.191 HD
ENDBRANCH  54  59
ENDBRANCH  52  53
ENDBRANCH  51  52
ENDBRANCH  50  51
ENDBRANCH  34  50
ENDBRANCH  31  34
ENDBRANCH  29  30
ENDBRANCH   3  29
TORSDOF 25
