REMARK SMILES CC(C)C[C@H](NC(=O)[C@H](CC(N)=O)NC(=O)[C@H](Cc1ccccc1)NC(=O)[C@@H](N)CO)C(=O)N[C@@H](CCCCN)C(=O)N[C@@H](CC(N)=O)C(=O)O
REMARK SMILES IDX 7 1 8 2 6 3 9 5 14 6 15 7 16 8 17 10 25 11 26 12 27 13 28 15
REMARK SMILES IDX 29 16 30 19 31 20 18 22 19 23 20 24 24 25 21 26 23 27 22 28
REMARK SMILES IDX 10 29 11 30 12 31 13 32 5 35 32 36 34 37 33 38 35 40 41 41
REMARK SMILES IDX 43 42 42 43 44 45 49 46 50 47 51 48 45 50 46 51 47 52 48 53
REMARK SMILES IDX 36 56 37 57 38 58 39 59 40 60 4 63 2 64 1 65 3 66
REMARK H PARENT 6 4 14 9 25 14 29 17 29 18 31 21 12 33 12 34 34 39 43 44 51 49
REMARK H PARENT 47 54 47 55 40 61 40 62
ROOT
ATOM      1  C   ASN A   3      20.051  10.095  -6.459  1.00  0.00     0.243 C 
ATOM      2  O   ASN A   3      20.169   9.183  -5.594  1.00  0.00    -0.273 OA
ATOM      3  N   LEU A   4      20.563   9.921  -7.770  1.00  0.00    -0.342 N 
ATOM      4  H   UNL     1      20.395  10.659  -8.493  1.00  0.00     0.164 HD
ENDROOT
BRANCH   1   5
ATOM      5  CA  ASN A   3      19.346  11.368  -6.130  1.00  0.00     0.180 C 
BRANCH   5   6
ATOM      6  N   ASN A   3      18.089  11.045  -5.508  1.00  0.00    -0.342 N 
ATOM      7  C   PHE A   2      16.887  11.749  -5.775  1.00  0.00     0.243 C 
ATOM      8  O   PHE A   2      16.902  12.793  -6.483  1.00  0.00    -0.273 OA
ATOM      9  H   UNL     1      18.164  10.487  -4.632  1.00  0.00     0.164 HD
BRANCH   7  10
ATOM     10  CA  PHE A   2      15.651  11.313  -5.060  1.00  0.00     0.175 C 
BRANCH  10  11
ATOM     11  N   PHE A   2      14.453  11.740  -5.769  1.00  0.00    -0.343 N 
ATOM     12  C   SER A   1      13.915  13.051  -5.636  1.00  0.00     0.239 C 
ATOM     13  O   SER A   1      14.449  13.870  -4.839  1.00  0.00    -0.273 OA
ATOM     14  H   UNL     1      13.861  11.001  -6.208  1.00  0.00     0.164 HD
BRANCH  12  15
ATOM     15  CA  SER A   1      12.655  13.410  -6.383  1.00  0.00     0.167 C 
BRANCH  15  16
ATOM     16  N   SER A   1      12.467  14.863  -6.382  1.00  0.00    -0.318 NA
ATOM     17  H   UNL     1      12.304  15.174  -5.396  1.00  0.00     0.119 HD
ATOM     18  H   UNL     1      11.581  15.087  -6.890  1.00  0.00     0.119 HD
ENDBRANCH  15  16
BRANCH  15  19
ATOM     19  CB  SER A   1      12.695  12.894  -7.842  1.00  0.00     0.184 C 
BRANCH  19  20
ATOM     20  OG  SER A   1      11.440  13.037  -8.449  1.00  0.00    -0.394 OA
ATOM     21  H   UNL     1      10.855  12.333  -8.065  1.00  0.00     0.210 HD
ENDBRANCH  19  20
ENDBRANCH  15  19
ENDBRANCH  12  15
ENDBRANCH  10  11
BRANCH  10  22
ATOM     22  CB  PHE A   2      15.612   9.773  -4.891  1.00  0.00     0.070 C 
BRANCH  22  23
ATOM     23  CG  PHE A   2      14.442   9.290  -4.091  1.00  0.00    -0.045 A 
ATOM     24  CD1 PHE A   2      13.903  10.047  -3.033  1.00  0.00     0.004 A 
ATOM     25  CD2 PHE A   2      13.968   7.990  -4.310  1.00  0.00     0.004 A 
ATOM     26  CE1 PHE A   2      12.869   9.536  -2.260  1.00  0.00     0.000 A 
ATOM     27  CE2 PHE A   2      12.939   7.477  -3.521  1.00  0.00     0.000 A 
ATOM     28  CZ  PHE A   2      12.386   8.252  -2.502  1.00  0.00     0.000 A 
ENDBRANCH  22  23
ENDBRANCH  10  22
ENDBRANCH   7  10
ENDBRANCH   5   6
BRANCH   5  29
ATOM     29  CB  ASN A   3      20.177  12.264  -5.201  1.00  0.00     0.134 C 
BRANCH  29  30
ATOM     30  CG  ASN A   3      20.417  11.675  -3.833  1.00  0.00     0.220 C 
ATOM     31  ND2 ASN A   3      21.583  10.894  -3.573  1.00  0.00    -0.370 N 
ATOM     32  OD1 ASN A   3      19.582  11.874  -2.910  1.00  0.00    -0.275 OA
ATOM     33  H   UNL     1      22.287  10.721  -4.324  1.00  0.00     0.159 HD
ATOM     34  H   UNL     1      21.743  10.484  -2.626  1.00  0.00     0.159 HD
ENDBRANCH  29  30
ENDBRANCH   5  29
ENDBRANCH   1   5
BRANCH   3  35
ATOM     35  CA  LEU A   4      21.348   8.760  -8.137  1.00  0.00     0.171 C 
BRANCH  35  36
ATOM     36  C   LEU A   4      22.713   9.217  -8.518  1.00  0.00     0.243 C 
ATOM     37  N   LYS A   5      23.823   8.730  -7.777  1.00  0.00    -0.343 N 
ATOM     38  O   LEU A   4      22.876  10.031  -9.468  1.00  0.00    -0.273 OA
ATOM     39  H   UNL     1      23.669   8.044  -7.003  1.00  0.00     0.164 HD
BRANCH  37  40
ATOM     40  CA  LYS A   5      25.185   9.130  -8.073  1.00  0.00     0.171 C 
BRANCH  40  41
ATOM     41  C   LYS A   5      25.897   7.972  -8.686  1.00  0.00     0.243 C 
ATOM     42  N   ASN A   6      25.912   7.867 -10.103  1.00  0.00    -0.341 N 
ATOM     43  O   LYS A   5      26.443   7.090  -7.970  1.00  0.00    -0.273 OA
ATOM     44  H   UNL     1      25.489   8.651 -10.652  1.00  0.00     0.164 HD
BRANCH  42  45
ATOM     45  CA  ASN A   6      26.541   6.752 -10.803  1.00  0.00     0.201 C 
BRANCH  45  46
ATOM     46  C   ASN A   6      27.991   6.643 -10.414  1.00  0.00     0.326 C 
ATOM     47  O   ASN A   6      28.794   7.579 -10.677  1.00  0.00    -0.250 OA
BRANCH  46  48
ATOM     48  OXT ASN A   6      28.449   5.501  -9.765  1.00  0.00    -0.480 OA
ATOM     49  H   UNL     1      29.421   5.410  -9.496  1.00  0.00     0.296 HD
ENDBRANCH  46  48
ENDBRANCH  45  46
BRANCH  45  50
ATOM     50  CB  ASN A   6      26.424   6.947 -12.323  1.00  0.00     0.136 C 
BRANCH  50  51
ATOM     51  CG  ASN A   6      25.010   7.181 -12.773  1.00  0.00     0.220 C 
ATOM     52  ND2 ASN A   6      24.753   8.090 -13.834  1.00  0.00    -0.370 N 
ATOM     53  OD1 ASN A   6      24.053   6.558 -12.243  1.00  0.00    -0.275 OA
ATOM     54  H   UNL     1      23.775   8.258 -14.157  1.00  0.00     0.159 HD
ATOM     55  H   UNL     1      25.533   8.600 -14.306  1.00  0.00     0.159 HD
ENDBRANCH  50  51
ENDBRANCH  45  50
ENDBRANCH  42  45
ENDBRANCH  40  41
BRANCH  40  56
ATOM     56  CB  LYS A   5      25.877   9.617  -6.804  1.00  0.00     0.035 C 
BRANCH  56  57
ATOM     57  CG  LYS A   5      25.180  10.857  -6.232  1.00  0.00     0.004 C 
BRANCH  57  58
ATOM     58  CD  LYS A   5      25.865  11.361  -4.956  1.00  0.00     0.015 C 
BRANCH  58  59
ATOM     59  CE  LYS A   5      27.296  11.901  -5.148  1.00  0.00     0.077 C 
BRANCH  59  60
ATOM     60  NZ  LYS A   5      27.360  13.010  -6.100  1.00  0.00    -0.330 NA
ATOM     61  H   UNL     1      26.585  13.685  -5.903  1.00  0.00     0.118 HD
ATOM     62  H   UNL     1      27.234  12.638  -7.068  1.00  0.00     0.118 HD
ENDBRANCH  59  60
ENDBRANCH  58  59
ENDBRANCH  57  58
ENDBRANCH  56  57
ENDBRANCH  40  56
ENDBRANCH  37  40
ENDBRANCH  35  36
BRANCH  35  63
ATOM     63  CB  LEU A   4      20.655   7.999  -9.270  1.00  0.00     0.038 C 
BRANCH  63  64
ATOM     64  CG  LEU A   4      21.449   6.771  -9.768  1.00  0.00    -0.015 C 
ATOM     65  CD1 LEU A   4      21.763   5.779  -8.639  1.00  0.00     0.007 C 
ATOM     66  CD2 LEU A   4      20.662   6.068 -10.877  1.00  0.00     0.007 C 
ENDBRANCH  63  64
ENDBRANCH  35  63
ENDBRANCH   3  35
TORSDOF 28
