REMARK SMILES CC(C)C[C@H](NC(=O)[C@H](Cc1ccccc1)NC(=O)[C@H](C)N)C(=O)N[C@@H](CC(N)=O)C(=O)N[C@@H](CCCNC(=N)N)C(=O)N[C@@H](CC(N)=O)C(=O)O
REMARK SMILES IDX 26 1 25 2 23 3 24 4 5 6 6 7 7 8 8 9 9 11 17 12 18 13 19 14
REMARK SMILES IDX 20 16 21 17 22 18 10 21 11 22 12 23 16 24 13 25 15 26 14 27
REMARK SMILES IDX 4 28 2 29 1 30 3 31 31 32 33 33 32 34 34 36 42 37 44 38
REMARK SMILES IDX 43 39 45 41 50 42 51 43 52 44 46 46 47 47 48 48 49 49 35 52
REMARK SMILES IDX 36 53 37 54 38 55 39 56 41 57 40 61 27 63 28 64 29 65 30 66
REMARK H PARENT 25 5 6 10 17 15 22 19 22 20 33 35 44 40 52 45 48 50 48 51
REMARK H PARENT 38 58 41 59 41 60 40 62 29 67 29 68
ROOT
ATOM      1  CA  ASN A   4       0.167   1.365  -1.078  1.00  0.00     0.180 C 
ENDROOT
BRANCH   1   2
ATOM      2  N   ASN A   4       1.314   0.449  -1.068  1.00  0.00    -0.342 N 
ATOM      3  C   LEU A   3       1.693  -0.270   0.113  1.00  0.00     0.243 C 
ATOM      4  O   LEU A   3       1.213   0.054   1.232  1.00  0.00    -0.273 OA
ATOM      5  H   UNL     1       1.841   0.264  -1.953  1.00  0.00     0.164 HD
BRANCH   3   6
ATOM      6  CA  LEU A   3       2.678  -1.407   0.027  1.00  0.00     0.171 C 
BRANCH   6   7
ATOM      7  N   LEU A   3       3.903  -1.032   0.734  1.00  0.00    -0.343 N 
ATOM      8  C   PHE A   2       5.209  -1.161   0.150  1.00  0.00     0.243 C 
ATOM      9  O   PHE A   2       5.352  -1.754  -0.953  1.00  0.00    -0.273 OA
ATOM     10  H   UNL     1       3.822  -0.667   1.712  1.00  0.00     0.164 HD
BRANCH   8  11
ATOM     11  CA  PHE A   2       6.397  -0.526   0.829  1.00  0.00     0.175 C 
BRANCH  11  12
ATOM     12  N   PHE A   2       7.604  -1.353   0.688  1.00  0.00    -0.343 N 
ATOM     13  C   ALA A   1       8.335  -1.558  -0.534  1.00  0.00     0.237 C 
ATOM     14  O   ALA A   1       7.974  -0.991  -1.601  1.00  0.00    -0.273 OA
ATOM     15  H   UNL     1       7.968  -1.810   1.555  1.00  0.00     0.164 HD
BRANCH  13  16
ATOM     16  CA  ALA A   1       9.574  -2.421  -0.525  1.00  0.00     0.138 C 
ATOM     17  CB  ALA A   1      10.804  -1.564  -0.228  1.00  0.00     0.035 C 
BRANCH  16  18
ATOM     18  N   ALA A   1       9.747  -3.136  -1.794  1.00  0.00    -0.320 NA
ATOM     19  H   UNL     1       9.844  -2.451  -2.579  1.00  0.00     0.119 HD
ATOM     20  H   UNL     1       8.890  -3.707  -1.973  1.00  0.00     0.119 HD
ENDBRANCH  16  18
ENDBRANCH  13  16
ENDBRANCH  11  12
BRANCH  11  21
ATOM     21  CB  PHE A   2       6.630   0.917   0.338  1.00  0.00     0.070 C 
BRANCH  21  22
ATOM     22  CG  PHE A   2       5.532   1.840   0.807  1.00  0.00    -0.045 A 
ATOM     23  CD1 PHE A   2       4.454   2.157  -0.042  1.00  0.00     0.004 A 
ATOM     24  CD2 PHE A   2       5.552   2.352   2.116  1.00  0.00     0.004 A 
ATOM     25  CE1 PHE A   2       3.426   2.990   0.411  1.00  0.00     0.000 A 
ATOM     26  CE2 PHE A   2       4.516   3.176   2.565  1.00  0.00     0.000 A 
ATOM     27  CZ  PHE A   2       3.456   3.498   1.712  1.00  0.00     0.000 A 
ENDBRANCH  21  22
ENDBRANCH  11  21
ENDBRANCH   8  11
ENDBRANCH   6   7
BRANCH   6  28
ATOM     28  CB  LEU A   3       2.111  -2.707   0.636  1.00  0.00     0.038 C 
BRANCH  28  29
ATOM     29  CG  LEU A   3       0.778  -3.182   0.003  1.00  0.00    -0.015 C 
ATOM     30  CD1 LEU A   3       0.267  -4.423   0.744  1.00  0.00     0.007 C 
ATOM     31  CD2 LEU A   3       0.920  -3.492  -1.495  1.00  0.00     0.007 C 
ENDBRANCH  28  29
ENDBRANCH   6  28
ENDBRANCH   3   6
ENDBRANCH   1   2
BRANCH   1  32
ATOM     32  C   ASN A   4      -1.117   0.592  -0.909  1.00  0.00     0.243 C 
ATOM     33  N   ARG A   5      -2.186   1.126  -0.114  1.00  0.00    -0.343 N 
ATOM     34  O   ASN A   4      -1.252  -0.517  -1.497  1.00  0.00    -0.273 OA
ATOM     35  H   UNL     1      -2.055   2.048   0.356  1.00  0.00     0.164 HD
BRANCH  33  36
ATOM     36  CA  ARG A   5      -3.477   0.452   0.035  1.00  0.00     0.171 C 
BRANCH  36  37
ATOM     37  C   ARG A   5      -4.538   1.296  -0.631  1.00  0.00     0.243 C 
ATOM     38  N   ASN A   6      -5.311   2.279   0.087  1.00  0.00    -0.341 N 
ATOM     39  O   ARG A   5      -4.681   1.185  -1.883  1.00  0.00    -0.273 OA
ATOM     40  H   UNL     1      -5.130   2.445   1.099  1.00  0.00     0.164 HD
BRANCH  38  41
ATOM     41  CA  ASN A   6      -6.391   3.033  -0.559  1.00  0.00     0.201 C 
BRANCH  41  42
ATOM     42  C   ASN A   6      -6.765   4.216   0.293  1.00  0.00     0.326 C 
ATOM     43  O   ASN A   6      -7.497   4.068   1.308  1.00  0.00    -0.250 OA
BRANCH  42  44
ATOM     44  OXT ASN A   6      -6.263   5.477  -0.021  1.00  0.00    -0.480 OA
ATOM     45  H   UNL     1      -6.495   6.282   0.545  1.00  0.00     0.296 HD
ENDBRANCH  42  44
ENDBRANCH  41  42
BRANCH  41  46
ATOM     46  CB  ASN A   6      -7.602   2.114  -0.816  1.00  0.00     0.136 C 
BRANCH  46  47
ATOM     47  CG  ASN A   6      -8.671   2.808  -1.609  1.00  0.00     0.220 C 
ATOM     48  ND2 ASN A   6      -8.485   3.062  -3.004  1.00  0.00    -0.370 N 
ATOM     49  OD1 ASN A   6      -9.729   3.185  -1.043  1.00  0.00    -0.275 OA
ATOM     50  H   UNL     1      -7.603   2.774  -3.481  1.00  0.00     0.159 HD
ATOM     51  H   UNL     1      -9.233   3.533  -3.559  1.00  0.00     0.159 HD
ENDBRANCH  46  47
ENDBRANCH  41  46
ENDBRANCH  38  41
ENDBRANCH  36  37
BRANCH  36  52
ATOM     52  CB  ARG A   5      -3.713   0.108   1.525  1.00  0.00     0.037 C 
BRANCH  52  53
ATOM     53  CG  ARG A   5      -4.771  -0.987   1.758  1.00  0.00     0.024 C 
BRANCH  53  54
ATOM     54  CD  ARG A   5      -6.211  -0.519   1.515  1.00  0.00     0.116 C 
BRANCH  54  55
ATOM     55  NE  ARG A   5      -7.161  -1.546   1.944  1.00  0.00    -0.357 N 
ATOM     56  CZ  ARG A   5      -7.354  -2.811   1.287  1.00  0.00     0.185 C 
ATOM     57  NH2 ARG A   5      -8.133  -3.821   1.931  1.00  0.00    -0.370 N 
ATOM     58  H   UNL     1      -7.716  -1.352   2.808  1.00  0.00     0.163 HD
ATOM     59  H   UNL     1      -8.261  -4.758   1.485  1.00  0.00     0.159 HD
ATOM     60  H   UNL     1      -8.573  -3.646   2.861  1.00  0.00     0.159 HD
BRANCH  56  61
ATOM     61  NH1 ARG A   5      -6.867  -3.050   0.107  1.00  0.00    -0.270 NA
ATOM     62  H   UNL     1      -6.313  -2.358  -0.442  1.00  0.00     0.191 HD
ENDBRANCH  56  61
ENDBRANCH  54  55
ENDBRANCH  53  54
ENDBRANCH  52  53
ENDBRANCH  36  52
ENDBRANCH  33  36
ENDBRANCH   1  32
BRANCH   1  63
ATOM     63  CB  ASN A   4       0.140   2.224  -2.358  1.00  0.00     0.134 C 
BRANCH  63  64
ATOM     64  CG  ASN A   4      -0.126   1.428  -3.608  1.00  0.00     0.220 C 
ATOM     65  ND2 ASN A   4      -1.465   1.224  -4.066  1.00  0.00    -0.370 N 
ATOM     66  OD1 ASN A   4       0.834   0.915  -4.244  1.00  0.00    -0.275 OA
ATOM     67  H   UNL     1      -2.270   1.673  -3.571  1.00  0.00     0.159 HD
ATOM     68  H   UNL     1      -1.651   0.627  -4.905  1.00  0.00     0.159 HD
ENDBRANCH  63  64
ENDBRANCH   1  63
TORSDOF 26
