REMARK SMILES CC(C)C[C@H](NC(=O)[C@H](CCCNC(=N)N)NC(=O)[C@H](Cc1ccccc1)NC(=O)[C@@H](N)CO)C(=O)N[C@@H](CCCNC(=N)N)C(=O)N[C@@H](CCC(N)=O)C(=O)O
REMARK SMILES IDX 7 1 8 2 6 3 9 5 17 6 18 7 19 8 20 10 28 11 29 12 30 13 31 15
REMARK SMILES IDX 32 16 33 19 34 20 21 22 22 23 23 24 27 25 24 26 26 27 25 28
REMARK SMILES IDX 10 29 11 30 12 31 13 32 14 33 16 34 15 38 5 40 35 41 37 42
REMARK SMILES IDX 36 43 38 45 46 46 48 47 47 48 49 50 55 51 56 52 57 53 50 55
REMARK SMILES IDX 51 56 52 57 53 58 54 59 39 62 40 63 41 64 42 65 43 66 45 67
REMARK SMILES IDX 44 71 4 73 2 74 1 75 3 76
REMARK H PARENT 6 4 17 9 28 14 32 17 32 18 34 21 13 35 16 36 16 37 15 39 37 44
REMARK H PARENT 48 49 57 54 53 60 53 61 42 68 45 69 45 70 44 72
ROOT
ATOM      1  C   ARG A   3      -1.122  -0.922  -0.425  1.00  0.00     0.243 C 
ATOM      2  O   ARG A   3      -1.640  -1.747  -1.228  1.00  0.00    -0.273 OA
ATOM      3  N   LEU A   4       0.103  -0.258  -0.771  1.00  0.00    -0.343 N 
ATOM      4  H   UNL     1       0.509   0.421  -0.089  1.00  0.00     0.164 HD
ENDROOT
BRANCH   1   5
ATOM      5  CA  ARG A   3      -1.804  -0.622   0.881  1.00  0.00     0.171 C 
BRANCH   5   6
ATOM      6  N   ARG A   3      -2.944   0.278   0.667  1.00  0.00    -0.343 N 
ATOM      7  C   PHE A   2      -4.176  -0.092   0.023  1.00  0.00     0.243 C 
ATOM      8  O   PHE A   2      -4.248  -1.168  -0.632  1.00  0.00    -0.273 OA
ATOM      9  H   UNL     1      -2.892   1.213   1.145  1.00  0.00     0.164 HD
BRANCH   7  10
ATOM     10  CA  PHE A   2      -5.383   0.822   0.083  1.00  0.00     0.175 C 
BRANCH  10  11
ATOM     11  N   PHE A   2      -6.525   0.186  -0.586  1.00  0.00    -0.343 N 
ATOM     12  C   SER A   1      -6.730   0.267  -2.005  1.00  0.00     0.239 C 
ATOM     13  O   SER A   1      -6.091   1.114  -2.690  1.00  0.00    -0.273 OA
ATOM     14  H   UNL     1      -7.076  -0.526  -0.055  1.00  0.00     0.164 HD
BRANCH  12  15
ATOM     15  CA  SER A   1      -7.665  -0.716  -2.679  1.00  0.00     0.167 C 
BRANCH  15  16
ATOM     16  N   SER A   1      -8.100  -0.258  -4.003  1.00  0.00    -0.318 NA
ATOM     17  H   UNL     1      -7.269  -0.089  -4.616  1.00  0.00     0.119 HD
ATOM     18  H   UNL     1      -8.598   0.653  -3.897  1.00  0.00     0.119 HD
ENDBRANCH  15  16
BRANCH  15  19
ATOM     19  CB  SER A   1      -7.000  -2.094  -2.787  1.00  0.00     0.184 C 
BRANCH  19  20
ATOM     20  OG  SER A   1      -5.799  -2.000  -3.505  1.00  0.00    -0.394 OA
ATOM     21  H   UNL     1      -5.415  -2.913  -3.520  1.00  0.00     0.210 HD
ENDBRANCH  19  20
ENDBRANCH  15  19
ENDBRANCH  12  15
ENDBRANCH  10  11
BRANCH  10  22
ATOM     22  CB  PHE A   2      -5.758   1.145   1.543  1.00  0.00     0.070 C 
BRANCH  22  23
ATOM     23  CG  PHE A   2      -6.981   2.024   1.620  1.00  0.00    -0.045 A 
ATOM     24  CD1 PHE A   2      -8.230   1.482   1.960  1.00  0.00     0.004 A 
ATOM     25  CD2 PHE A   2      -6.882   3.396   1.332  1.00  0.00     0.004 A 
ATOM     26  CE1 PHE A   2      -9.361   2.304   2.010  1.00  0.00     0.000 A 
ATOM     27  CE2 PHE A   2      -8.018   4.207   1.367  1.00  0.00     0.000 A 
ATOM     28  CZ  PHE A   2      -9.258   3.660   1.701  1.00  0.00     0.000 A 
ENDBRANCH  22  23
ENDBRANCH  10  22
ENDBRANCH   7  10
ENDBRANCH   5   6
BRANCH   5  29
ATOM     29  CB  ARG A   3      -2.215  -1.913   1.621  1.00  0.00     0.037 C 
BRANCH  29  30
ATOM     30  CG  ARG A   3      -2.722  -1.607   3.041  1.00  0.00     0.024 C 
BRANCH  30  31
ATOM     31  CD  ARG A   3      -3.367  -2.835   3.693  1.00  0.00     0.116 C 
BRANCH  31  32
ATOM     32  NE  ARG A   3      -4.633  -3.168   3.044  1.00  0.00    -0.357 N 
ATOM     33  CZ  ARG A   3      -5.832  -2.403   3.243  1.00  0.00     0.185 C 
ATOM     34  NH2 ARG A   3      -6.963  -2.642   2.401  1.00  0.00    -0.370 N 
ATOM     35  H   UNL     1      -4.664  -3.996   2.401  1.00  0.00     0.163 HD
ATOM     36  H   UNL     1      -6.912  -3.365   1.651  1.00  0.00     0.159 HD
ATOM     37  H   UNL     1      -7.869  -2.149   2.562  1.00  0.00     0.159 HD
BRANCH  33  38
ATOM     38  NH1 ARG A   3      -5.889  -1.496   4.169  1.00  0.00    -0.270 NA
ATOM     39  H   UNL     1      -6.752  -0.924   4.325  1.00  0.00     0.191 HD
ENDBRANCH  33  38
ENDBRANCH  31  32
ENDBRANCH  30  31
ENDBRANCH  29  30
ENDBRANCH   5  29
ENDBRANCH   1   5
BRANCH   3  40
ATOM     40  CA  LEU A   4       0.701  -0.371  -2.103  1.00  0.00     0.171 C 
BRANCH  40  41
ATOM     41  C   LEU A   4       2.201  -0.133  -2.075  1.00  0.00     0.243 C 
ATOM     42  N   ARG A   5       2.981  -0.495  -0.926  1.00  0.00    -0.343 N 
ATOM     43  O   LEU A   4       2.784   0.272  -3.120  1.00  0.00    -0.273 OA
ATOM     44  H   UNL     1       2.506  -0.915  -0.094  1.00  0.00     0.164 HD
BRANCH  42  45
ATOM     45  CA  ARG A   5       4.420  -0.228  -0.822  1.00  0.00     0.171 C 
BRANCH  45  46
ATOM     46  C   ARG A   5       5.132  -1.513  -0.440  1.00  0.00     0.243 C 
ATOM     47  N   GLN A   6       6.099  -1.588   0.630  1.00  0.00    -0.341 N 
ATOM     48  O   ARG A   5       4.891  -2.545  -1.125  1.00  0.00    -0.273 OA
ATOM     49  H   UNL     1       6.088  -0.886   1.404  1.00  0.00     0.164 HD
BRANCH  47  50
ATOM     50  CA  GLN A   6       7.246  -2.501   0.536  1.00  0.00     0.192 C 
BRANCH  50  51
ATOM     51  C   GLN A   6       7.755  -2.823   1.923  1.00  0.00     0.326 C 
ATOM     52  O   GLN A   6       6.928  -3.159   2.818  1.00  0.00    -0.250 OA
BRANCH  51  53
ATOM     53  OXT GLN A   6       9.116  -2.784   2.227  1.00  0.00    -0.480 OA
ATOM     54  H   UNL     1       9.445  -3.035   3.154  1.00  0.00     0.296 HD
ENDBRANCH  51  53
ENDBRANCH  50  51
BRANCH  50  55
ATOM     55  CB  GLN A   6       8.324  -1.864  -0.382  1.00  0.00     0.047 C 
BRANCH  55  56
ATOM     56  CG  GLN A   6       9.083  -2.888  -1.250  1.00  0.00     0.102 C 
BRANCH  56  57
ATOM     57  CD  GLN A   6       9.985  -3.764  -0.430  1.00  0.00     0.217 C 
ATOM     58  NE2 GLN A   6      11.260  -3.291   0.010  1.00  0.00    -0.370 N 
ATOM     59  OE1 GLN A   6       9.611  -4.926  -0.094  1.00  0.00    -0.275 OA
ATOM     60  H   UNL     1      11.597  -2.348  -0.280  1.00  0.00     0.159 HD
ATOM     61  H   UNL     1      11.877  -3.889   0.585  1.00  0.00     0.159 HD
ENDBRANCH  56  57
ENDBRANCH  55  56
ENDBRANCH  50  55
ENDBRANCH  47  50
ENDBRANCH  45  46
BRANCH  45  62
ATOM     62  CB  ARG A   5       4.645   0.965   0.128  1.00  0.00     0.037 C 
BRANCH  62  63
ATOM     63  CG  ARG A   5       6.028   1.615  -0.063  1.00  0.00     0.024 C 
BRANCH  63  64
ATOM     64  CD  ARG A   5       6.226   2.792   0.896  1.00  0.00     0.116 C 
BRANCH  64  65
ATOM     65  NE  ARG A   5       7.575   3.344   0.759  1.00  0.00    -0.357 N 
ATOM     66  CZ  ARG A   5       8.049   4.073  -0.390  1.00  0.00     0.185 C 
ATOM     67  NH2 ARG A   5       9.442   4.350  -0.515  1.00  0.00    -0.370 N 
ATOM     68  H   UNL     1       8.253   3.150   1.526  1.00  0.00     0.163 HD
ATOM     69  H   UNL     1      10.123   4.008   0.196  1.00  0.00     0.159 HD
ATOM     70  H   UNL     1       9.808   4.870  -1.341  1.00  0.00     0.159 HD
BRANCH  66  71
ATOM     71  NH1 ARG A   5       7.238   4.517  -1.298  1.00  0.00    -0.270 NA
ATOM     72  H   UNL     1       6.205   4.379  -1.268  1.00  0.00     0.191 HD
ENDBRANCH  66  71
ENDBRANCH  64  65
ENDBRANCH  63  64
ENDBRANCH  62  63
ENDBRANCH  45  62
ENDBRANCH  42  45
ENDBRANCH  40  41
BRANCH  40  73
ATOM     73  CB  LEU A   4      -0.047   0.526  -3.129  1.00  0.00     0.038 C 
BRANCH  73  74
ATOM     74  CG  LEU A   4      -0.268   2.027  -2.774  1.00  0.00    -0.015 C 
ATOM     75  CD1 LEU A   4       1.005   2.769  -2.346  1.00  0.00     0.007 C 
ATOM     76  CD2 LEU A   4      -1.399   2.252  -1.759  1.00  0.00     0.007 C 
ENDBRANCH  73  74
ENDBRANCH  40  73
ENDBRANCH   3  40
TORSDOF 32
