REMARK SMILES CC(C)C[C@H](NC(=O)[C@H](Cc1c[nH]cn1)NC(=O)[C@@H](N)CO)C(=O)N1CCC[C@H]1C(=O)N[C@@H](CCCNC(=N)N)C(=O)N[C@@H](CC(N)=O)C(=O)O
REMARK SMILES IDX 25 1 29 2 28 3 27 4 26 5 23 6 24 7 5 8 6 9 7 10 8 11 9 13
REMARK SMILES IDX 16 14 17 15 18 16 19 18 20 19 21 22 22 23 10 25 11 26 15 27
REMARK SMILES IDX 12 28 14 29 13 30 4 32 2 33 1 34 3 35 30 36 32 37 31 38
REMARK SMILES IDX 33 40 41 41 43 42 42 43 44 45 49 46 50 47 51 48 45 50 46 51
REMARK SMILES IDX 47 52 48 53 34 56 35 57 36 58 37 59 38 60 40 61 39 65
REMARK H PARENT 6 12 16 17 20 20 20 21 22 24 13 31 32 39 43 44 51 49 47 54
REMARK H PARENT 47 55 37 62 40 63 40 64 39 66
ROOT
ATOM      1  N   PRO A   4       0.352   1.216  -1.099  1.00  0.00    -0.329 N 
ATOM      2  CA  PRO A   4       1.532   0.862  -1.883  1.00  0.00     0.174 C 
ATOM      3  CB  PRO A   4       1.802   2.103  -2.739  1.00  0.00     0.037 C 
ATOM      4  CG  PRO A   4       1.164   3.262  -1.984  1.00  0.00     0.024 C 
ATOM      5  CD  PRO A   4       0.050   2.639  -1.157  1.00  0.00     0.120 C 
ENDROOT
BRANCH   1   6
ATOM      6  C   LEU A   3      -0.458   0.250  -0.400  1.00  0.00     0.245 C 
ATOM      7  O   LEU A   3      -0.209  -0.981  -0.529  1.00  0.00    -0.272 OA
BRANCH   6   8
ATOM      8  CA  LEU A   3      -1.540   0.688   0.559  1.00  0.00     0.171 C 
BRANCH   8   9
ATOM      9  N   LEU A   3      -2.609  -0.316   0.597  1.00  0.00    -0.342 N 
ATOM     10  C   HIS A   2      -3.684  -0.315  -0.351  1.00  0.00     0.243 C 
ATOM     11  O   HIS A   2      -3.572   0.322  -1.435  1.00  0.00    -0.273 OA
ATOM     12  H   UNL     1      -2.608  -1.048   1.344  1.00  0.00     0.164 HD
BRANCH  10  13
ATOM     13  CA  HIS A   2      -4.934  -1.102  -0.065  1.00  0.00     0.177 C 
BRANCH  13  14
ATOM     14  N   HIS A   2      -6.096  -0.435  -0.660  1.00  0.00    -0.342 N 
ATOM     15  C   SER A   1      -6.821   0.596   0.025  1.00  0.00     0.239 C 
ATOM     16  O   SER A   1      -6.407   1.035   1.133  1.00  0.00    -0.273 OA
ATOM     17  H   UNL     1      -6.381  -0.685  -1.634  1.00  0.00     0.164 HD
BRANCH  15  18
ATOM     18  CA  SER A   1      -8.101   1.140  -0.553  1.00  0.00     0.167 C 
BRANCH  18  19
ATOM     19  N   SER A   1      -7.867   1.612  -1.920  1.00  0.00    -0.318 NA
ATOM     20  H   UNL     1      -8.747   2.053  -2.272  1.00  0.00     0.119 HD
ATOM     21  H   UNL     1      -7.154   2.377  -1.886  1.00  0.00     0.119 HD
ENDBRANCH  18  19
BRANCH  18  22
ATOM     22  CB  SER A   1      -9.194   0.059  -0.549  1.00  0.00     0.184 C 
BRANCH  22  23
ATOM     23  OG  SER A   1      -9.457  -0.374   0.760  1.00  0.00    -0.394 OA
ATOM     24  H   UNL     1      -8.846  -1.136   0.939  1.00  0.00     0.210 HD
ENDBRANCH  22  23
ENDBRANCH  18  22
ENDBRANCH  15  18
ENDBRANCH  13  14
BRANCH  13  25
ATOM     25  CB  HIS A   2      -4.799  -2.535  -0.602  1.00  0.00     0.093 C 
BRANCH  25  26
ATOM     26  CG  HIS A   2      -5.997  -3.356  -0.226  1.00  0.00     0.061 A 
ATOM     27  ND1 HIS A   2      -6.177  -3.909   0.991  1.00  0.00    -0.242 NA
ATOM     28  CD2 HIS A   2      -7.117  -3.557  -1.002  1.00  0.00     0.107 A 
ATOM     29  CE1 HIS A   2      -7.409  -4.457   0.917  1.00  0.00     0.196 A 
ATOM     30  NE2 HIS A   2      -8.001  -4.256  -0.276  1.00  0.00    -0.351 N 
ATOM     31  H   UNL     1      -8.953  -4.567  -0.570  1.00  0.00     0.167 HD
ENDBRANCH  25  26
ENDBRANCH  13  25
ENDBRANCH  10  13
ENDBRANCH   8   9
BRANCH   8  32
ATOM     32  CB  LEU A   3      -0.926   0.904   1.965  1.00  0.00     0.038 C 
BRANCH  32  33
ATOM     33  CG  LEU A   3      -1.776   1.759   2.940  1.00  0.00    -0.015 C 
ATOM     34  CD1 LEU A   3      -1.890   3.224   2.491  1.00  0.00     0.007 C 
ATOM     35  CD2 LEU A   3      -3.164   1.163   3.215  1.00  0.00     0.007 C 
ENDBRANCH  32  33
ENDBRANCH   8  32
ENDBRANCH   6   8
ENDBRANCH   1   6
BRANCH   2  36
ATOM     36  C   PRO A   4       2.701   0.521  -0.979  1.00  0.00     0.243 C 
ATOM     37  N   ARG A   5       4.008   0.298  -1.542  1.00  0.00    -0.343 N 
ATOM     38  O   PRO A   4       2.513   0.391   0.261  1.00  0.00    -0.273 OA
ATOM     39  H   UNL     1       4.108   0.369  -2.579  1.00  0.00     0.164 HD
BRANCH  37  40
ATOM     40  CA  ARG A   5       5.198  -0.148  -0.800  1.00  0.00     0.171 C 
BRANCH  40  41
ATOM     41  C   ARG A   5       5.068  -1.596  -0.396  1.00  0.00     0.243 C 
ATOM     42  N   ASN A   6       6.235  -2.438  -0.388  1.00  0.00    -0.341 N 
ATOM     43  O   ARG A   5       3.951  -2.054  -0.033  1.00  0.00    -0.273 OA
ATOM     44  H   UNL     1       7.159  -2.007  -0.622  1.00  0.00     0.164 HD
BRANCH  42  45
ATOM     45  CA  ASN A   6       6.211  -3.880  -0.107  1.00  0.00     0.201 C 
BRANCH  45  46
ATOM     46  C   ASN A   6       5.380  -4.617  -1.132  1.00  0.00     0.326 C 
ATOM     47  O   ASN A   6       5.082  -4.067  -2.226  1.00  0.00    -0.250 OA
BRANCH  46  48
ATOM     48  OXT ASN A   6       5.009  -5.940  -0.911  1.00  0.00    -0.480 OA
ATOM     49  H   UNL     1       4.473  -6.452  -1.601  1.00  0.00     0.296 HD
ENDBRANCH  46  48
ENDBRANCH  45  46
BRANCH  45  50
ATOM     50  CB  ASN A   6       5.734  -4.136   1.341  1.00  0.00     0.136 C 
BRANCH  50  51
ATOM     51  CG  ASN A   6       6.193  -5.470   1.861  1.00  0.00     0.220 C 
ATOM     52  ND2 ASN A   6       5.273  -6.553   2.003  1.00  0.00    -0.370 N 
ATOM     53  OD1 ASN A   6       7.404  -5.636   2.169  1.00  0.00    -0.275 OA
ATOM     54  H   UNL     1       5.603  -7.482   2.345  1.00  0.00     0.159 HD
ATOM     55  H   UNL     1       4.267  -6.438   1.751  1.00  0.00     0.159 HD
ENDBRANCH  50  51
ENDBRANCH  45  50
ENDBRANCH  42  45
ENDBRANCH  40  41
BRANCH  40  56
ATOM     56  CB  ARG A   5       5.543   0.737   0.422  1.00  0.00     0.037 C 
BRANCH  56  57
ATOM     57  CG  ARG A   5       6.012   2.157   0.060  1.00  0.00     0.024 C 
BRANCH  57  58
ATOM     58  CD  ARG A   5       4.867   3.085  -0.370  1.00  0.00     0.116 C 
BRANCH  58  59
ATOM     59  NE  ARG A   5       5.296   4.483  -0.333  1.00  0.00    -0.357 N 
ATOM     60  CZ  ARG A   5       6.172   5.062  -1.312  1.00  0.00     0.185 C 
ATOM     61  NH2 ARG A   5       6.549   6.437  -1.199  1.00  0.00    -0.370 N 
ATOM     62  H   UNL     1       4.896   5.102   0.409  1.00  0.00     0.163 HD
ATOM     63  H   UNL     1       6.190   7.021  -0.411  1.00  0.00     0.159 HD
ATOM     64  H   UNL     1       7.194   6.874  -1.894  1.00  0.00     0.159 HD
BRANCH  60  65
ATOM     65  NH1 ARG A   5       6.616   4.348  -2.298  1.00  0.00    -0.270 NA
ATOM     66  H   UNL     1       7.252   4.749  -3.023  1.00  0.00     0.191 HD
ENDBRANCH  60  65
ENDBRANCH  58  59
ENDBRANCH  57  58
ENDBRANCH  56  57
ENDBRANCH  40  56
ENDBRANCH  37  40
ENDBRANCH   2  36
TORSDOF 26
