REMARK SMILES CC[C@H](C)[C@H](NC(=O)[C@@H](N)CO)C(=O)N[C@@H](CC(N)=O)C(=O)N[C@@H](CC(C)C)C(=O)N[C@@H](CCCNC(=N)N)C(=O)N[C@@H](CC(N)=O)C(=O)O
REMARK SMILES IDX 21 1 22 2 23 3 16 5 15 6 13 7 14 8 5 10 6 11 7 12 8 13 9 15
REMARK SMILES IDX 10 16 11 19 12 20 3 22 4 23 2 24 1 25 17 26 18 27 19 28
REMARK SMILES IDX 20 29 24 32 29 33 31 34 30 35 32 37 40 38 42 39 41 40 43 42
REMARK SMILES IDX 48 43 49 44 50 45 44 47 45 48 46 49 47 50 33 53 34 54 35 55
REMARK SMILES IDX 36 56 37 57 39 58 38 62 25 64 26 65 27 66 28 67
REMARK H PARENT 23 4 15 9 6 14 10 17 10 18 12 21 19 30 19 31 31 36 42 41 50 46
REMARK H PARENT 46 51 46 52 36 59 39 60 39 61 38 63
ROOT
ATOM      1  C   ASN A   3      20.044  10.094  -6.457  1.00  0.00     0.243 C 
ATOM      2  O   ASN A   3      20.166   9.181  -5.593  1.00  0.00    -0.273 OA
ATOM      3  N   LEU A   4      20.560   9.923  -7.768  1.00  0.00    -0.342 N 
ATOM      4  H   UNL     1      20.393  10.663  -8.489  1.00  0.00     0.164 HD
ENDROOT
BRANCH   1   5
ATOM      5  CA  ASN A   3      19.337  11.365  -6.124  1.00  0.00     0.180 C 
BRANCH   5   6
ATOM      6  N   ASN A   3      18.082  11.043  -5.490  1.00  0.00    -0.342 N 
ATOM      7  C   ILE A   2      16.877  11.753  -5.738  1.00  0.00     0.243 C 
ATOM      8  O   ILE A   2      16.889  12.793  -6.454  1.00  0.00    -0.273 OA
ATOM      9  H   UNL     1      18.157  10.464  -4.628  1.00  0.00     0.164 HD
BRANCH   7  10
ATOM     10  CA  ILE A   2      15.622  11.277  -5.056  1.00  0.00     0.174 C 
BRANCH  10  11
ATOM     11  N   ILE A   2      14.437  11.730  -5.772  1.00  0.00    -0.343 N 
ATOM     12  C   SER A   1      13.912  13.046  -5.639  1.00  0.00     0.239 C 
ATOM     13  O   SER A   1      14.452  13.861  -4.840  1.00  0.00    -0.273 OA
ATOM     14  H   UNL     1      13.837  11.011  -6.224  1.00  0.00     0.164 HD
BRANCH  12  15
ATOM     15  CA  SER A   1      12.655  13.412  -6.390  1.00  0.00     0.167 C 
BRANCH  15  16
ATOM     16  N   SER A   1      12.469  14.865  -6.381  1.00  0.00    -0.318 NA
ATOM     17  H   UNL     1      11.585  15.094  -6.890  1.00  0.00     0.119 HD
ATOM     18  H   UNL     1      12.305  15.171  -5.394  1.00  0.00     0.119 HD
ENDBRANCH  15  16
BRANCH  15  19
ATOM     19  CB  SER A   1      12.699  12.904  -7.850  1.00  0.00     0.184 C 
BRANCH  19  20
ATOM     20  OG  SER A   1      11.437  13.043  -8.441  1.00  0.00    -0.394 OA
ATOM     21  H   UNL     1      11.546  12.791  -9.395  1.00  0.00     0.210 HD
ENDBRANCH  19  20
ENDBRANCH  15  19
ENDBRANCH  12  15
ENDBRANCH  10  11
BRANCH  10  22
ATOM     22  CB  ILE A   2      15.592   9.720  -4.912  1.00  0.00     0.018 C 
ATOM     23  CG1 ILE A   2      14.397   9.268  -4.071  1.00  0.00     0.010 C 
BRANCH  22  24
ATOM     24  CG2 ILE A   2      15.636   8.975  -6.276  1.00  0.00     0.002 C 
ATOM     25  CD1 ILE A   2      16.230   7.571  -6.154  1.00  0.00     0.004 C 
ENDBRANCH  22  24
ENDBRANCH  10  22
ENDBRANCH   7  10
ENDBRANCH   5   6
BRANCH   5  26
ATOM     26  CB  ASN A   3      20.173  12.262  -5.201  1.00  0.00     0.134 C 
BRANCH  26  27
ATOM     27  CG  ASN A   3      20.422  11.674  -3.834  1.00  0.00     0.220 C 
ATOM     28  ND2 ASN A   3      21.599  10.908  -3.578  1.00  0.00    -0.370 N 
ATOM     29  OD1 ASN A   3      19.586  11.859  -2.910  1.00  0.00    -0.275 OA
ATOM     30  H   UNL     1      21.770  10.504  -2.630  1.00  0.00     0.159 HD
ATOM     31  H   UNL     1      22.302  10.743  -4.331  1.00  0.00     0.159 HD
ENDBRANCH  26  27
ENDBRANCH   5  26
ENDBRANCH   1   5
BRANCH   3  32
ATOM     32  CA  LEU A   4      21.346   8.762  -8.136  1.00  0.00     0.171 C 
BRANCH  32  33
ATOM     33  C   LEU A   4      22.712   9.217  -8.519  1.00  0.00     0.243 C 
ATOM     34  N   ARG A   5      23.821   8.720  -7.785  1.00  0.00    -0.343 N 
ATOM     35  O   LEU A   4      22.875  10.033  -9.467  1.00  0.00    -0.273 OA
ATOM     36  H   UNL     1      23.666   8.031  -7.014  1.00  0.00     0.164 HD
BRANCH  34  37
ATOM     37  CA  ARG A   5      25.185   9.122  -8.073  1.00  0.00     0.171 C 
BRANCH  37  38
ATOM     38  C   ARG A   5      25.899   7.967  -8.685  1.00  0.00     0.243 C 
ATOM     39  N   ASN A   6      25.913   7.864 -10.102  1.00  0.00    -0.341 N 
ATOM     40  O   ARG A   5      26.447   7.087  -7.969  1.00  0.00    -0.273 OA
ATOM     41  H   UNL     1      25.489   8.647 -10.651  1.00  0.00     0.164 HD
BRANCH  39  42
ATOM     42  CA  ASN A   6      26.542   6.751 -10.804  1.00  0.00     0.201 C 
BRANCH  42  43
ATOM     43  C   ASN A   6      27.993   6.642 -10.416  1.00  0.00     0.326 C 
ATOM     44  O   ASN A   6      28.794   7.579 -10.677  1.00  0.00    -0.250 OA
BRANCH  43  45
ATOM     45  OXT ASN A   6      28.451   5.499  -9.768  1.00  0.00    -0.480 OA
ATOM     46  H   UNL     1      29.424   5.409  -9.499  1.00  0.00     0.296 HD
ENDBRANCH  43  45
ENDBRANCH  42  43
BRANCH  42  47
ATOM     47  CB  ASN A   6      26.424   6.946 -12.323  1.00  0.00     0.136 C 
BRANCH  47  48
ATOM     48  CG  ASN A   6      25.010   7.180 -12.773  1.00  0.00     0.220 C 
ATOM     49  ND2 ASN A   6      24.753   8.090 -13.833  1.00  0.00    -0.370 N 
ATOM     50  OD1 ASN A   6      24.053   6.558 -12.243  1.00  0.00    -0.275 OA
ATOM     51  H   UNL     1      25.533   8.600 -14.306  1.00  0.00     0.159 HD
ATOM     52  H   UNL     1      23.775   8.258 -14.156  1.00  0.00     0.159 HD
ENDBRANCH  47  48
ENDBRANCH  42  47
ENDBRANCH  39  42
ENDBRANCH  37  38
BRANCH  37  53
ATOM     53  CB  ARG A   5      25.863   9.605  -6.796  1.00  0.00     0.037 C 
BRANCH  53  54
ATOM     54  CG  ARG A   5      25.169  10.862  -6.274  1.00  0.00     0.024 C 
BRANCH  54  55
ATOM     55  CD  ARG A   5      25.841  11.392  -5.015  1.00  0.00     0.116 C 
BRANCH  55  56
ATOM     56  NE  ARG A   5      25.376  10.685  -3.824  1.00  0.00    -0.357 N 
ATOM     57  CZ  ARG A   5      25.467  11.279  -2.528  1.00  0.00     0.185 C 
ATOM     58  NH2 ARG A   5      26.106  12.540  -2.350  1.00  0.00    -0.370 N 
ATOM     59  H   UNL     1      24.898   9.760  -3.923  1.00  0.00     0.163 HD
ATOM     60  H   UNL     1      26.693  12.982  -3.090  1.00  0.00     0.159 HD
ATOM     61  H   UNL     1      26.083  13.005  -1.415  1.00  0.00     0.159 HD
BRANCH  57  62
ATOM     62  NH1 ARG A   5      24.956  10.678  -1.501  1.00  0.00    -0.270 NA
ATOM     63  H   UNL     1      24.473   9.756  -1.585  1.00  0.00     0.191 HD
ENDBRANCH  57  62
ENDBRANCH  55  56
ENDBRANCH  54  55
ENDBRANCH  53  54
ENDBRANCH  37  53
ENDBRANCH  34  37
ENDBRANCH  32  33
BRANCH  32  64
ATOM     64  CB  LEU A   4      20.653   8.000  -9.269  1.00  0.00     0.038 C 
BRANCH  64  65
ATOM     65  CG  LEU A   4      21.447   6.772  -9.767  1.00  0.00    -0.015 C 
ATOM     66  CD1 LEU A   4      21.762   5.779  -8.638  1.00  0.00     0.007 C 
ATOM     67  CD2 LEU A   4      20.661   6.069 -10.876  1.00  0.00     0.007 C 
ENDBRANCH  64  65
ENDBRANCH  32  64
ENDBRANCH   3  32
TORSDOF 28
