REMARK SMILES CC(C)C[C@H](NC(=O)[C@H](Cc1c[nH]cn1)NC(=O)[C@H](Cc1ccccc1)NC(=O)[C@@H](N)CO)C(=O)N[C@@H](CCCNC(=N)N)C(=O)N[C@@H](CCC(N)=O)C(=O)O
REMARK SMILES IDX 7 1 8 2 6 3 9 5 16 6 17 7 18 8 19 10 27 11 28 12 29 13 30 15
REMARK SMILES IDX 31 16 32 19 33 20 20 22 21 23 22 24 26 25 23 26 25 27 24 28
REMARK SMILES IDX 10 29 11 30 15 31 12 32 14 33 13 34 5 36 34 37 36 38 35 39
REMARK SMILES IDX 37 41 45 42 47 43 46 44 48 46 54 47 55 48 56 49 49 51 50 52
REMARK SMILES IDX 51 53 52 54 53 55 38 58 39 59 40 60 41 61 42 62 44 63 43 67
REMARK SMILES IDX 4 69 2 70 1 71 3 72
REMARK H PARENT 6 4 16 9 27 14 31 17 31 18 33 21 13 35 36 40 47 45 56 50 52 56
REMARK H PARENT 52 57 41 64 44 65 44 66 43 68
ROOT
ATOM      1  C   HIS A   3      -1.902  -0.065   0.372  1.00  0.00     0.243 C 
ATOM      2  O   HIS A   3      -2.034  -0.603   1.507  1.00  0.00    -0.273 OA
ATOM      3  N   LEU A   4      -0.743  -0.347  -0.430  1.00  0.00    -0.342 N 
ATOM      4  H   UNL     1      -0.735   0.018  -1.407  1.00  0.00     0.164 HD
ENDROOT
BRANCH   1   5
ATOM      5  CA  HIS A   3      -2.964   0.874  -0.150  1.00  0.00     0.177 C 
BRANCH   5   6
ATOM      6  N   HIS A   3      -4.116   0.927   0.759  1.00  0.00    -0.342 N 
ATOM      7  C   PHE A   2      -5.473   0.754   0.327  1.00  0.00     0.243 C 
ATOM      8  O   PHE A   2      -5.731   0.536  -0.888  1.00  0.00    -0.273 OA
ATOM      9  H   UNL     1      -3.948   1.151   1.764  1.00  0.00     0.164 HD
BRANCH   7  10
ATOM     10  CA  PHE A   2      -6.589   0.785   1.345  1.00  0.00     0.175 C 
BRANCH  10  11
ATOM     11  N   PHE A   2      -7.870   1.124   0.713  1.00  0.00    -0.343 N 
ATOM     12  C   SER A   1      -8.163   2.453   0.256  1.00  0.00     0.239 C 
ATOM     13  O   SER A   1      -7.279   3.351   0.307  1.00  0.00    -0.273 OA
ATOM     14  H   UNL     1      -8.604   0.390   0.597  1.00  0.00     0.164 HD
BRANCH  12  15
ATOM     15  CA  SER A   1      -9.516   2.777  -0.321  1.00  0.00     0.167 C 
BRANCH  15  16
ATOM     16  N   SER A   1     -10.065   3.957   0.346  1.00  0.00    -0.318 NA
ATOM     17  H   UNL     1     -11.039   4.113  -0.002  1.00  0.00     0.119 HD
ATOM     18  H   UNL     1      -9.504   4.801   0.077  1.00  0.00     0.119 HD
ENDBRANCH  15  16
BRANCH  15  19
ATOM     19  CB  SER A   1      -9.423   2.998  -1.839  1.00  0.00     0.184 C 
BRANCH  19  20
ATOM     20  OG  SER A   1      -8.986   1.822  -2.461  1.00  0.00    -0.394 OA
ATOM     21  H   UNL     1      -8.993   2.007  -3.434  1.00  0.00     0.210 HD
ENDBRANCH  19  20
ENDBRANCH  15  19
ENDBRANCH  12  15
ENDBRANCH  10  11
BRANCH  10  22
ATOM     22  CB  PHE A   2      -6.673  -0.542   2.134  1.00  0.00     0.070 C 
BRANCH  22  23
ATOM     23  CG  PHE A   2      -6.974  -1.752   1.278  1.00  0.00    -0.045 A 
ATOM     24  CD1 PHE A   2      -5.939  -2.403   0.582  1.00  0.00     0.004 A 
ATOM     25  CD2 PHE A   2      -8.286  -2.256   1.186  1.00  0.00     0.004 A 
ATOM     26  CE1 PHE A   2      -6.216  -3.524  -0.207  1.00  0.00     0.000 A 
ATOM     27  CE2 PHE A   2      -8.556  -3.379   0.398  1.00  0.00     0.000 A 
ATOM     28  CZ  PHE A   2      -7.522  -4.017  -0.291  1.00  0.00     0.000 A 
ENDBRANCH  22  23
ENDBRANCH  10  22
ENDBRANCH   7  10
ENDBRANCH   5   6
BRANCH   5  29
ATOM     29  CB  HIS A   3      -2.409   2.293  -0.389  1.00  0.00     0.093 C 
BRANCH  29  30
ATOM     30  CG  HIS A   3      -2.131   3.061   0.875  1.00  0.00     0.061 A 
ATOM     31  ND1 HIS A   3      -2.668   4.273   1.140  1.00  0.00    -0.242 NA
ATOM     32  CD2 HIS A   3      -1.240   2.719   1.872  1.00  0.00     0.107 A 
ATOM     33  CE1 HIS A   3      -2.105   4.628   2.314  1.00  0.00     0.196 A 
ATOM     34  NE2 HIS A   3      -1.239   3.705   2.779  1.00  0.00    -0.351 N 
ATOM     35  H   UNL     1      -0.673   3.756   3.655  1.00  0.00     0.167 HD
ENDBRANCH  29  30
ENDBRANCH   5  29
ENDBRANCH   1   5
BRANCH   3  36
ATOM     36  CA  LEU A   4       0.397  -1.132   0.064  1.00  0.00     0.171 C 
BRANCH  36  37
ATOM     37  C   LEU A   4       1.682  -0.351  -0.052  1.00  0.00     0.243 C 
ATOM     38  N   ARG A   5       2.772  -0.627   0.841  1.00  0.00    -0.343 N 
ATOM     39  O   LEU A   4       1.809   0.528  -0.952  1.00  0.00    -0.273 OA
ATOM     40  H   UNL     1       2.660  -1.392   1.542  1.00  0.00     0.164 HD
BRANCH  38  41
ATOM     41  CA  ARG A   5       4.034   0.116   0.773  1.00  0.00     0.171 C 
BRANCH  41  42
ATOM     42  C   ARG A   5       4.891  -0.391  -0.361  1.00  0.00     0.243 C 
ATOM     43  N   GLN A   6       5.907   0.460  -0.918  1.00  0.00    -0.341 N 
ATOM     44  O   ARG A   5       4.741  -1.568  -0.787  1.00  0.00    -0.273 OA
ATOM     45  H   UNL     1       6.027   1.411  -0.502  1.00  0.00     0.164 HD
BRANCH  43  46
ATOM     46  CA  GLN A   6       6.883  -0.005  -1.913  1.00  0.00     0.192 C 
BRANCH  46  47
ATOM     47  C   GLN A   6       8.242  -0.181  -1.290  1.00  0.00     0.326 C 
ATOM     48  O   GLN A   6       8.589   0.518  -0.301  1.00  0.00    -0.250 OA
BRANCH  47  49
ATOM     49  OXT GLN A   6       9.133  -1.110  -1.828  1.00  0.00    -0.480 OA
ATOM     50  H   UNL     1      10.058  -1.226  -1.436  1.00  0.00     0.296 HD
ENDBRANCH  47  49
ENDBRANCH  46  47
BRANCH  46  51
ATOM     51  CB  GLN A   6       6.925   0.935  -3.136  1.00  0.00     0.047 C 
BRANCH  51  52
ATOM     52  CG  GLN A   6       7.517   2.328  -2.849  1.00  0.00     0.102 C 
BRANCH  52  53
ATOM     53  CD  GLN A   6       7.399   3.221  -4.052  1.00  0.00     0.217 C 
ATOM     54  NE2 GLN A   6       6.863   4.538  -3.929  1.00  0.00    -0.370 N 
ATOM     55  OE1 GLN A   6       7.822   2.821  -5.175  1.00  0.00    -0.275 OA
ATOM     56  H   UNL     1       6.545   4.904  -3.002  1.00  0.00     0.159 HD
ATOM     57  H   UNL     1       6.785   5.153  -4.768  1.00  0.00     0.159 HD
ENDBRANCH  52  53
ENDBRANCH  51  52
ENDBRANCH  46  51
ENDBRANCH  43  46
ENDBRANCH  41  42
BRANCH  41  58
ATOM     58  CB  ARG A   5       4.789   0.081   2.121  1.00  0.00     0.037 C 
BRANCH  58  59
ATOM     59  CG  ARG A   5       5.414  -1.284   2.464  1.00  0.00     0.024 C 
BRANCH  59  60
ATOM     60  CD  ARG A   5       6.172  -1.217   3.796  1.00  0.00     0.116 C 
BRANCH  60  61
ATOM     61  NE  ARG A   5       6.806  -2.501   4.101  1.00  0.00    -0.357 N 
ATOM     62  CZ  ARG A   5       7.981  -2.973   3.422  1.00  0.00     0.185 C 
ATOM     63  NH2 ARG A   5       8.535  -4.244   3.767  1.00  0.00    -0.370 N 
ATOM     64  H   UNL     1       6.418  -3.071   4.889  1.00  0.00     0.163 HD
ATOM     65  H   UNL     1       8.135  -4.791   4.560  1.00  0.00     0.159 HD
ATOM     66  H   UNL     1       9.333  -4.641   3.225  1.00  0.00     0.159 HD
BRANCH  62  67
ATOM     67  NH1 ARG A   5       8.530  -2.261   2.484  1.00  0.00    -0.270 NA
ATOM     68  H   UNL     1       9.381  -2.586   1.970  1.00  0.00     0.191 HD
ENDBRANCH  62  67
ENDBRANCH  60  61
ENDBRANCH  59  60
ENDBRANCH  58  59
ENDBRANCH  41  58
ENDBRANCH  38  41
ENDBRANCH  36  37
BRANCH  36  69
ATOM     69  CB  LEU A   4       0.463  -2.519  -0.626  1.00  0.00     0.038 C 
BRANCH  69  70
ATOM     70  CG  LEU A   4       1.194  -2.594  -1.997  1.00  0.00    -0.015 C 
ATOM     71  CD1 LEU A   4       0.482  -1.802  -3.103  1.00  0.00     0.007 C 
ATOM     72  CD2 LEU A   4       1.329  -4.063  -2.424  1.00  0.00     0.007 C 
ENDBRANCH  69  70
ENDBRANCH  36  69
ENDBRANCH   3  36
TORSDOF 29
