REMARK SMILES CC(C)C[C@H](NC(=O)[C@H](Cc1ccccc1)NC(=O)[C@@H](N)CO)C(=O)N[C@@H](CO)C(=O)N[C@@H](CCCCN)C(=O)N[C@@H](CC(N)=O)C(=O)O
REMARK SMILES IDX 24 1 25 2 26 3 5 5 6 6 7 7 8 8 9 10 17 11 18 12 19 13 20 15
REMARK SMILES IDX 21 16 22 19 23 20 10 22 11 23 12 24 16 25 13 26 15 27 14 28
REMARK SMILES IDX 4 29 2 30 1 31 3 32 27 33 30 34 32 35 31 36 33 38 39 39
REMARK SMILES IDX 41 40 40 41 42 43 47 44 48 45 49 46 43 48 44 49 45 50 46 51
REMARK SMILES IDX 34 54 35 55 36 56 37 57 38 58 28 61 29 62
REMARK H PARENT 26 4 6 9 17 14 21 17 21 18 23 21 32 37 41 42 49 47 45 52 45 53
REMARK H PARENT 38 59 38 60 29 63
ROOT
ATOM      1  C   LEU A   3      20.054  10.081  -6.477  1.00  0.00     0.243 C 
ATOM      2  O   LEU A   3      20.167   9.158  -5.623  1.00  0.00    -0.273 OA
ATOM      3  N   SER A   4      20.564   9.910  -7.787  1.00  0.00    -0.340 N 
ATOM      4  H   UNL     1      20.401  10.652  -8.507  1.00  0.00     0.164 HD
ENDROOT
BRANCH   1   5
ATOM      5  CA  LEU A   3      19.341  11.352  -6.147  1.00  0.00     0.171 C 
BRANCH   5   6
ATOM      6  N   LEU A   3      18.083  11.020  -5.538  1.00  0.00    -0.343 N 
ATOM      7  C   PHE A   2      16.887  11.745  -5.776  1.00  0.00     0.243 C 
ATOM      8  O   PHE A   2      16.906  12.796  -6.475  1.00  0.00    -0.273 OA
ATOM      9  H   UNL     1      18.155  10.387  -4.718  1.00  0.00     0.164 HD
BRANCH   7  10
ATOM     10  CA  PHE A   2      15.652  11.314  -5.057  1.00  0.00     0.175 C 
BRANCH  10  11
ATOM     11  N   PHE A   2      14.456  11.740  -5.769  1.00  0.00    -0.343 N 
ATOM     12  C   SER A   1      13.914  13.049  -5.637  1.00  0.00     0.239 C 
ATOM     13  O   SER A   1      14.442  13.869  -4.836  1.00  0.00    -0.273 OA
ATOM     14  H   UNL     1      13.876  11.000  -6.220  1.00  0.00     0.164 HD
BRANCH  12  15
ATOM     15  CA  SER A   1      12.661  13.410  -6.390  1.00  0.00     0.167 C 
BRANCH  15  16
ATOM     16  N   SER A   1      12.475  14.863  -6.375  1.00  0.00    -0.318 NA
ATOM     17  H   UNL     1      13.175  15.314  -7.009  1.00  0.00     0.119 HD
ATOM     18  H   UNL     1      11.521  15.090  -6.739  1.00  0.00     0.119 HD
ENDBRANCH  15  16
BRANCH  15  19
ATOM     19  CB  SER A   1      12.688  12.878  -7.844  1.00  0.00     0.184 C 
BRANCH  19  20
ATOM     20  OG  SER A   1      11.436  13.047  -8.450  1.00  0.00    -0.394 OA
ATOM     21  H   UNL     1      11.447  13.936  -8.892  1.00  0.00     0.210 HD
ENDBRANCH  19  20
ENDBRANCH  15  19
ENDBRANCH  12  15
ENDBRANCH  10  11
BRANCH  10  22
ATOM     22  CB  PHE A   2      15.610   9.774  -4.880  1.00  0.00     0.070 C 
BRANCH  22  23
ATOM     23  CG  PHE A   2      14.435   9.292  -4.092  1.00  0.00    -0.045 A 
ATOM     24  CD1 PHE A   2      13.898  10.048  -3.033  1.00  0.00     0.004 A 
ATOM     25  CD2 PHE A   2      13.964   7.991  -4.310  1.00  0.00     0.004 A 
ATOM     26  CE1 PHE A   2      12.866   9.535  -2.258  1.00  0.00     0.000 A 
ATOM     27  CE2 PHE A   2      12.937   7.477  -3.520  1.00  0.00     0.000 A 
ATOM     28  CZ  PHE A   2      12.384   8.252  -2.500  1.00  0.00     0.000 A 
ENDBRANCH  22  23
ENDBRANCH  10  22
ENDBRANCH   7  10
ENDBRANCH   5   6
BRANCH   5  29
ATOM     29  CB  LEU A   3      20.165  12.249  -5.215  1.00  0.00     0.038 C 
BRANCH  29  30
ATOM     30  CG  LEU A   3      20.409  11.677  -3.789  1.00  0.00    -0.015 C 
ATOM     31  CD1 LEU A   3      21.813  12.051  -3.312  1.00  0.00     0.007 C 
ATOM     32  CD2 LEU A   3      19.364  12.177  -2.782  1.00  0.00     0.007 C 
ENDBRANCH  29  30
ENDBRANCH   5  29
ENDBRANCH   1   5
BRANCH   3  33
ATOM     33  CA  SER A   4      21.344   8.745  -8.158  1.00  0.00     0.197 C 
BRANCH  33  34
ATOM     34  C   SER A   4      22.711   9.201  -8.532  1.00  0.00     0.245 C 
ATOM     35  N   LYS A   5      23.817   8.715  -7.785  1.00  0.00    -0.342 N 
ATOM     36  O   SER A   4      22.878  10.027  -9.470  1.00  0.00    -0.273 OA
ATOM     37  H   UNL     1      23.662   7.994  -7.044  1.00  0.00     0.164 HD
BRANCH  35  38
ATOM     38  CA  LYS A   5      25.180   9.125  -8.067  1.00  0.00     0.171 C 
BRANCH  38  39
ATOM     39  C   LYS A   5      25.900   7.973  -8.683  1.00  0.00     0.243 C 
ATOM     40  N   ASN A   6      25.915   7.869 -10.101  1.00  0.00    -0.341 N 
ATOM     41  O   LYS A   5      26.448   7.091  -7.968  1.00  0.00    -0.273 OA
ATOM     42  H   UNL     1      25.494   8.654 -10.649  1.00  0.00     0.164 HD
BRANCH  40  43
ATOM     43  CA  ASN A   6      26.542   6.754 -10.802  1.00  0.00     0.201 C 
BRANCH  43  44
ATOM     44  C   ASN A   6      27.992   6.643 -10.415  1.00  0.00     0.326 C 
ATOM     45  O   ASN A   6      28.795   7.579 -10.677  1.00  0.00    -0.250 OA
BRANCH  44  46
ATOM     46  OXT ASN A   6      28.450   5.499  -9.768  1.00  0.00    -0.480 OA
ATOM     47  H   UNL     1      29.423   5.408  -9.500  1.00  0.00     0.296 HD
ENDBRANCH  44  46
ENDBRANCH  43  44
BRANCH  43  48
ATOM     48  CB  ASN A   6      26.423   6.947 -12.322  1.00  0.00     0.136 C 
BRANCH  48  49
ATOM     49  CG  ASN A   6      25.009   7.182 -12.771  1.00  0.00     0.220 C 
ATOM     50  ND2 ASN A   6      24.753   8.089 -13.834  1.00  0.00    -0.370 N 
ATOM     51  OD1 ASN A   6      24.051   6.563 -12.237  1.00  0.00    -0.275 OA
ATOM     52  H   UNL     1      23.775   8.258 -14.157  1.00  0.00     0.159 HD
ATOM     53  H   UNL     1      25.533   8.596 -14.309  1.00  0.00     0.159 HD
ENDBRANCH  48  49
ENDBRANCH  43  48
ENDBRANCH  40  43
ENDBRANCH  38  39
BRANCH  38  54
ATOM     54  CB  LYS A   5      25.856   9.607  -6.786  1.00  0.00     0.035 C 
BRANCH  54  55
ATOM     55  CG  LYS A   5      25.183  10.873  -6.246  1.00  0.00     0.004 C 
BRANCH  55  56
ATOM     56  CD  LYS A   5      25.885  11.354  -4.974  1.00  0.00     0.015 C 
BRANCH  56  57
ATOM     57  CE  LYS A   5      25.479  12.794  -4.625  1.00  0.00     0.077 C 
BRANCH  57  58
ATOM     58  NZ  LYS A   5      26.019  13.201  -3.330  1.00  0.00    -0.330 NA
ATOM     59  H   UNL     1      27.059  13.091  -3.347  1.00  0.00     0.118 HD
ATOM     60  H   UNL     1      25.642  12.562  -2.592  1.00  0.00     0.118 HD
ENDBRANCH  57  58
ENDBRANCH  56  57
ENDBRANCH  55  56
ENDBRANCH  54  55
ENDBRANCH  38  54
ENDBRANCH  35  38
ENDBRANCH  33  34
BRANCH  33  61
ATOM     61  CB  SER A   4      20.661   8.001  -9.304  1.00  0.00     0.191 C 
BRANCH  61  62
ATOM     62  OG  SER A   4      21.401   6.869  -9.675  1.00  0.00    -0.394 OA
ATOM     63  H   UNL     1      21.244   6.184  -8.975  1.00  0.00     0.210 HD
ENDBRANCH  61  62
ENDBRANCH  33  61
ENDBRANCH   3  33
TORSDOF 28
