REMARK SMILES CC(C)C[C@H](NC(=O)[C@@H](NC(=O)[C@@H](N)CO)C(C)C)C(=O)NCC(=O)N[C@@H](CCCNC(=N)N)C(=O)N[C@@H](CC(N)=O)C(=O)O
REMARK SMILES IDX 20 1 21 2 22 3 5 5 6 6 7 7 8 8 9 10 10 11 11 12 12 13 13 15
REMARK SMILES IDX 14 16 15 19 16 20 17 22 18 23 19 24 4 25 2 26 1 27 3 28
REMARK SMILES IDX 23 29 24 30 26 31 25 32 27 34 35 35 37 36 36 37 38 39 43 40
REMARK SMILES IDX 44 41 45 42 39 44 40 45 41 46 42 47 28 50 29 51 30 52 31 53
REMARK SMILES IDX 32 54 34 55 33 59
REMARK H PARENT 22 4 6 9 10 14 14 17 14 18 16 21 26 33 37 38 45 43 41 48 41 49
REMARK H PARENT 31 56 34 57 34 58 33 60
ROOT
ATOM      1  C   LEU A   3      20.106  10.087  -6.453  1.00  0.00     0.243 C 
ATOM      2  O   LEU A   3      20.256   9.186  -5.583  1.00  0.00    -0.273 OA
ATOM      3  N   GLY A   4      20.570   9.902  -7.782  1.00  0.00    -0.345 N 
ATOM      4  H   UNL     1      20.387  10.638  -8.502  1.00  0.00     0.164 HD
ENDROOT
BRANCH   1   5
ATOM      5  CA  LEU A   3      19.341  11.327  -6.142  1.00  0.00     0.171 C 
BRANCH   5   6
ATOM      6  N   LEU A   3      18.076  10.972  -5.556  1.00  0.00    -0.343 N 
ATOM      7  C   VAL A   2      16.891  11.740  -5.718  1.00  0.00     0.243 C 
ATOM      8  O   VAL A   2      16.913  12.796  -6.412  1.00  0.00    -0.273 OA
ATOM      9  H   UNL     1      18.013   9.996  -5.223  1.00  0.00     0.164 HD
BRANCH   7  10
ATOM     10  CA  VAL A   2      15.639  11.315  -4.988  1.00  0.00     0.173 C 
BRANCH  10  11
ATOM     11  N   VAL A   2      14.477  11.722  -5.765  1.00  0.00    -0.343 N 
ATOM     12  C   SER A   1      13.913  13.030  -5.638  1.00  0.00     0.239 C 
ATOM     13  O   SER A   1      14.434  13.857  -4.838  1.00  0.00    -0.273 OA
ATOM     14  H   UNL     1      14.108  11.033  -6.450  1.00  0.00     0.164 HD
BRANCH  12  15
ATOM     15  CA  SER A   1      12.653  13.392  -6.388  1.00  0.00     0.167 C 
BRANCH  15  16
ATOM     16  N   SER A   1      12.469  14.847  -6.385  1.00  0.00    -0.318 NA
ATOM     17  H   UNL     1      11.583  15.075  -6.892  1.00  0.00     0.119 HD
ATOM     18  H   UNL     1      12.306  15.158  -5.399  1.00  0.00     0.119 HD
ENDBRANCH  15  16
BRANCH  15  19
ATOM     19  CB  SER A   1      12.680  12.877  -7.847  1.00  0.00     0.184 C 
BRANCH  19  20
ATOM     20  OG  SER A   1      11.433  13.060  -8.456  1.00  0.00    -0.394 OA
ATOM     21  H   UNL     1      10.816  12.390  -8.058  1.00  0.00     0.210 HD
ENDBRANCH  19  20
ENDBRANCH  15  19
ENDBRANCH  12  15
ENDBRANCH  10  11
BRANCH  10  22
ATOM     22  CB  VAL A   2      15.600   9.775  -4.665  1.00  0.00     0.015 C 
ATOM     23  CG1 VAL A   2      14.221   9.292  -4.243  1.00  0.00     0.010 C 
ATOM     24  CG2 VAL A   2      16.507   9.413  -3.447  1.00  0.00     0.010 C 
ENDBRANCH  10  22
ENDBRANCH   7  10
ENDBRANCH   5   6
BRANCH   5  25
ATOM     25  CB  LEU A   3      20.132  12.349  -5.311  1.00  0.00     0.038 C 
BRANCH  25  26
ATOM     26  CG  LEU A   3      20.431  12.209  -3.794  1.00  0.00    -0.015 C 
ATOM     27  CD1 LEU A   3      21.826  11.754  -3.405  1.00  0.00     0.007 C 
ATOM     28  CD2 LEU A   3      19.313  11.861  -2.838  1.00  0.00     0.007 C 
ENDBRANCH  25  26
ENDBRANCH   5  25
ENDBRANCH   1   5
BRANCH   3  29
ATOM     29  CA  GLY A   4      21.338   8.748  -8.194  1.00  0.00     0.216 C 
BRANCH  29  30
ATOM     30  C   GLY A   4      22.709   9.199  -8.537  1.00  0.00     0.240 C 
ATOM     31  N   ARG A   5      23.810   8.708  -7.787  1.00  0.00    -0.343 N 
ATOM     32  O   GLY A   4      22.882  10.027  -9.472  1.00  0.00    -0.273 OA
ATOM     33  H   UNL     1      23.646   7.992  -7.042  1.00  0.00     0.164 HD
BRANCH  31  34
ATOM     34  CA  ARG A   5      25.176   9.114  -8.068  1.00  0.00     0.171 C 
BRANCH  34  35
ATOM     35  C   ARG A   5      25.898   7.966  -8.684  1.00  0.00     0.243 C 
ATOM     36  N   ASN A   6      25.915   7.866 -10.101  1.00  0.00    -0.341 N 
ATOM     37  O   ARG A   5      26.448   7.086  -7.969  1.00  0.00    -0.273 OA
ATOM     38  H   UNL     1      25.496   8.652 -10.649  1.00  0.00     0.164 HD
BRANCH  36  39
ATOM     39  CA  ASN A   6      26.543   6.751 -10.803  1.00  0.00     0.201 C 
BRANCH  39  40
ATOM     40  C   ASN A   6      27.994   6.642 -10.416  1.00  0.00     0.326 C 
ATOM     41  O   ASN A   6      28.795   7.579 -10.677  1.00  0.00    -0.250 OA
BRANCH  40  42
ATOM     42  OXT ASN A   6      28.452   5.498  -9.770  1.00  0.00    -0.480 OA
ATOM     43  H   UNL     1      29.425   5.408  -9.502  1.00  0.00     0.296 HD
ENDBRANCH  40  42
ENDBRANCH  39  40
BRANCH  39  44
ATOM     44  CB  ASN A   6      26.424   6.947 -12.323  1.00  0.00     0.136 C 
BRANCH  44  45
ATOM     45  CG  ASN A   6      25.010   7.182 -12.772  1.00  0.00     0.220 C 
ATOM     46  ND2 ASN A   6      24.754   8.089 -13.834  1.00  0.00    -0.370 N 
ATOM     47  OD1 ASN A   6      24.051   6.563 -12.238  1.00  0.00    -0.275 OA
ATOM     48  H   UNL     1      25.534   8.596 -14.309  1.00  0.00     0.159 HD
ATOM     49  H   UNL     1      23.775   8.258 -14.157  1.00  0.00     0.159 HD
ENDBRANCH  44  45
ENDBRANCH  39  44
ENDBRANCH  36  39
ENDBRANCH  34  35
BRANCH  34  50
ATOM     50  CB  ARG A   5      25.853   9.599  -6.791  1.00  0.00     0.037 C 
BRANCH  50  51
ATOM     51  CG  ARG A   5      25.163  10.859  -6.271  1.00  0.00     0.024 C 
BRANCH  51  52
ATOM     52  CD  ARG A   5      25.838  11.391  -5.015  1.00  0.00     0.116 C 
BRANCH  52  53
ATOM     53  NE  ARG A   5      25.375  10.685  -3.823  1.00  0.00    -0.357 N 
ATOM     54  CZ  ARG A   5      25.467  11.279  -2.527  1.00  0.00     0.185 C 
ATOM     55  NH2 ARG A   5      26.106  12.541  -2.350  1.00  0.00    -0.370 N 
ATOM     56  H   UNL     1      24.892   9.762  -3.921  1.00  0.00     0.163 HD
ATOM     57  H   UNL     1      26.691  12.982  -3.091  1.00  0.00     0.159 HD
ATOM     58  H   UNL     1      26.083  13.007  -1.416  1.00  0.00     0.159 HD
BRANCH  54  59
ATOM     59  NH1 ARG A   5      24.956  10.680  -1.499  1.00  0.00    -0.270 NA
ATOM     60  H   UNL     1      24.473   9.758  -1.584  1.00  0.00     0.191 HD
ENDBRANCH  54  59
ENDBRANCH  52  53
ENDBRANCH  51  52
ENDBRANCH  50  51
ENDBRANCH  34  50
ENDBRANCH  31  34
ENDBRANCH  29  30
ENDBRANCH   3  29
TORSDOF 25
