REMARK SMILES C[C@H](NC(=O)CNC(=O)[C@H](Cc1ccccc1)NC(=O)[C@@H](N)CO)C(=O)N[C@@H](CCCNC(=N)N)C(=O)N[C@@H](CC(N)=O)C(=O)O
REMARK SMILES IDX 4 1 5 2 3 3 6 5 7 6 8 7 9 8 10 10 18 11 19 12 20 13 21 15
REMARK SMILES IDX 22 16 23 19 24 20 11 22 12 23 13 24 17 25 14 26 16 27 15 28
REMARK SMILES IDX 2 29 1 30 25 31 27 32 26 33 28 35 36 36 38 37 37 38 39 40
REMARK SMILES IDX 44 41 45 42 46 43 40 45 41 46 42 47 43 48 29 51 30 52 31 53
REMARK SMILES IDX 32 54 33 55 35 56 34 60
REMARK H PARENT 3 4 7 9 18 14 22 17 22 18 24 21 27 34 38 39 46 44 42 49 42 50
REMARK H PARENT 32 57 35 58 35 59 34 61
ROOT
ATOM      1  C   GLY A   3      20.044  10.095  -6.469  1.00  0.00     0.240 C 
ATOM      2  O   GLY A   3      20.178   9.200  -5.588  1.00  0.00    -0.273 OA
ATOM      3  N   ALA A   4      20.553   9.906  -7.780  1.00  0.00    -0.343 N 
ATOM      4  H   UNL     1      20.383  10.640  -8.507  1.00  0.00     0.164 HD
ENDROOT
BRANCH   1   5
ATOM      5  CA  GLY A   3      19.354  11.372  -6.155  1.00  0.00     0.216 C 
BRANCH   5   6
ATOM      6  N   GLY A   3      18.114  11.082  -5.479  1.00  0.00    -0.345 N 
ATOM      7  C   PHE A   2      16.899  11.757  -5.771  1.00  0.00     0.243 C 
ATOM      8  O   PHE A   2      16.904  12.791  -6.493  1.00  0.00    -0.273 OA
ATOM      9  H   UNL     1      18.216  10.608  -4.554  1.00  0.00     0.164 HD
BRANCH   7  10
ATOM     10  CA  PHE A   2      15.661  11.315  -5.059  1.00  0.00     0.175 C 
BRANCH  10  11
ATOM     11  N   PHE A   2      14.462  11.739  -5.769  1.00  0.00    -0.343 N 
ATOM     12  C   SER A   1      13.919  13.047  -5.634  1.00  0.00     0.239 C 
ATOM     13  O   SER A   1      14.447  13.866  -4.832  1.00  0.00    -0.273 OA
ATOM     14  H   UNL     1      13.878  10.998  -6.214  1.00  0.00     0.164 HD
BRANCH  12  15
ATOM     15  CA  SER A   1      12.662  13.408  -6.389  1.00  0.00     0.167 C 
BRANCH  15  16
ATOM     16  N   SER A   1      12.454  14.858  -6.401  1.00  0.00    -0.318 NA
ATOM     17  H   UNL     1      12.284  15.187  -5.423  1.00  0.00     0.119 HD
ATOM     18  H   UNL     1      13.315  15.335  -6.757  1.00  0.00     0.119 HD
ENDBRANCH  15  16
BRANCH  15  19
ATOM     19  CB  SER A   1      12.693  12.884  -7.841  1.00  0.00     0.184 C 
BRANCH  19  20
ATOM     20  OG  SER A   1      11.438  13.058  -8.436  1.00  0.00    -0.394 OA
ATOM     21  H   UNL     1      11.539  12.785  -9.385  1.00  0.00     0.210 HD
ENDBRANCH  19  20
ENDBRANCH  15  19
ENDBRANCH  12  15
ENDBRANCH  10  11
BRANCH  10  22
ATOM     22  CB  PHE A   2      15.629   9.778  -4.889  1.00  0.00     0.070 C 
BRANCH  22  23
ATOM     23  CG  PHE A   2      14.457   9.289  -4.087  1.00  0.00    -0.045 A 
ATOM     24  CD1 PHE A   2      13.910  10.047  -3.033  1.00  0.00     0.004 A 
ATOM     25  CD2 PHE A   2      13.977   7.991  -4.310  1.00  0.00     0.004 A 
ATOM     26  CE1 PHE A   2      12.872   9.537  -2.263  1.00  0.00     0.000 A 
ATOM     27  CE2 PHE A   2      12.944   7.479  -3.524  1.00  0.00     0.000 A 
ATOM     28  CZ  PHE A   2      12.389   8.254  -2.506  1.00  0.00     0.000 A 
ENDBRANCH  22  23
ENDBRANCH  10  22
ENDBRANCH   7  10
ENDBRANCH   5   6
ENDBRANCH   1   5
BRANCH   3  29
ATOM     29  CA  ALA A   4      21.338   8.744  -8.148  1.00  0.00     0.168 C 
ATOM     30  CB  ALA A   4      20.665   8.000  -9.292  1.00  0.00     0.041 C 
BRANCH  29  31
ATOM     31  C   ALA A   4      22.706   9.198  -8.527  1.00  0.00     0.242 C 
ATOM     32  N   ARG A   5      23.816   8.705  -7.789  1.00  0.00    -0.343 N 
ATOM     33  O   ALA A   4      22.872  10.025  -9.465  1.00  0.00    -0.273 OA
ATOM     34  H   UNL     1      23.662   7.982  -7.049  1.00  0.00     0.164 HD
BRANCH  32  35
ATOM     35  CA  ARG A   5      25.179   9.116  -8.072  1.00  0.00     0.171 C 
BRANCH  35  36
ATOM     36  C   ARG A   5      25.901   7.967  -8.686  1.00  0.00     0.243 C 
ATOM     37  N   ASN A   6      25.916   7.866 -10.103  1.00  0.00    -0.341 N 
ATOM     38  O   ARG A   5      26.449   7.087  -7.970  1.00  0.00    -0.273 OA
ATOM     39  H   UNL     1      25.496   8.651 -10.651  1.00  0.00     0.164 HD
BRANCH  37  40
ATOM     40  CA  ASN A   6      26.543   6.751 -10.804  1.00  0.00     0.201 C 
BRANCH  40  41
ATOM     41  C   ASN A   6      27.994   6.642 -10.417  1.00  0.00     0.326 C 
ATOM     42  O   ASN A   6      28.795   7.579 -10.677  1.00  0.00    -0.250 OA
BRANCH  41  43
ATOM     43  OXT ASN A   6      28.453   5.497  -9.772  1.00  0.00    -0.480 OA
ATOM     44  H   UNL     1      29.426   5.407  -9.504  1.00  0.00     0.296 HD
ENDBRANCH  41  43
ENDBRANCH  40  41
BRANCH  40  45
ATOM     45  CB  ASN A   6      26.424   6.946 -12.323  1.00  0.00     0.136 C 
BRANCH  45  46
ATOM     46  CG  ASN A   6      25.009   7.181 -12.772  1.00  0.00     0.220 C 
ATOM     47  ND2 ASN A   6      24.753   8.089 -13.834  1.00  0.00    -0.370 N 
ATOM     48  OD1 ASN A   6      24.051   6.563 -12.238  1.00  0.00    -0.275 OA
ATOM     49  H   UNL     1      23.775   8.258 -14.156  1.00  0.00     0.159 HD
ATOM     50  H   UNL     1      25.533   8.595 -14.309  1.00  0.00     0.159 HD
ENDBRANCH  45  46
ENDBRANCH  40  45
ENDBRANCH  37  40
ENDBRANCH  35  36
BRANCH  35  51
ATOM     51  CB  ARG A   5      25.856   9.600  -6.794  1.00  0.00     0.037 C 
BRANCH  51  52
ATOM     52  CG  ARG A   5      25.165  10.859  -6.272  1.00  0.00     0.024 C 
BRANCH  52  53
ATOM     53  CD  ARG A   5      25.841  11.390  -5.016  1.00  0.00     0.116 C 
BRANCH  53  54
ATOM     54  NE  ARG A   5      25.378  10.684  -3.823  1.00  0.00    -0.357 N 
ATOM     55  CZ  ARG A   5      25.469  11.279  -2.527  1.00  0.00     0.185 C 
ATOM     56  NH2 ARG A   5      26.106  12.541  -2.350  1.00  0.00    -0.370 N 
ATOM     57  H   UNL     1      24.904   9.757  -3.921  1.00  0.00     0.163 HD
ATOM     58  H   UNL     1      26.693  12.983  -3.091  1.00  0.00     0.159 HD
ATOM     59  H   UNL     1      26.084  13.006  -1.415  1.00  0.00     0.159 HD
BRANCH  55  60
ATOM     60  NH1 ARG A   5      24.959  10.679  -1.500  1.00  0.00    -0.270 NA
ATOM     61  H   UNL     1      24.479   9.755  -1.583  1.00  0.00     0.191 HD
ENDBRANCH  55  60
ENDBRANCH  53  54
ENDBRANCH  52  53
ENDBRANCH  51  52
ENDBRANCH  35  51
ENDBRANCH  32  35
ENDBRANCH  29  31
ENDBRANCH   3  29
TORSDOF 24
