REMARK SMILES CC(C)C[C@H](NC(=O)[C@H](Cc1ccccc1)NC(=O)[C@@H](N)CO)C(=O)N[C@@H](CC(N)=O)C(=O)N[C@@H](CCCCN)C(=O)N[C@@H](CC(N)=O)C(=O)O
REMARK SMILES IDX 24 1 25 2 26 3 5 5 6 6 7 7 8 8 9 10 17 11 18 12 19 13 20 15
REMARK SMILES IDX 21 16 22 19 23 20 10 22 11 23 12 24 16 25 13 26 15 27 14 28
REMARK SMILES IDX 4 29 2 30 1 31 3 32 27 33 32 34 34 35 33 36 35 38 41 39
REMARK SMILES IDX 43 40 42 41 44 43 49 44 50 45 51 46 45 48 46 49 47 50 48 51
REMARK SMILES IDX 36 54 37 55 38 56 39 57 40 58 28 61 29 62 30 63 31 64
REMARK H PARENT 26 4 6 9 17 14 21 17 21 18 23 21 34 37 43 42 51 47 47 52 47 53
REMARK H PARENT 40 59 40 60 30 65 30 66
ROOT
ATOM      1  C   LEU A   3      20.054  10.081  -6.477  1.00  0.00     0.243 C 
ATOM      2  O   LEU A   3      20.166   9.158  -5.623  1.00  0.00    -0.273 OA
ATOM      3  N   ASN A   4      20.566   9.910  -7.787  1.00  0.00    -0.342 N 
ATOM      4  H   UNL     1      20.402  10.651  -8.507  1.00  0.00     0.164 HD
ENDROOT
BRANCH   1   5
ATOM      5  CA  LEU A   3      19.341  11.352  -6.148  1.00  0.00     0.171 C 
BRANCH   5   6
ATOM      6  N   LEU A   3      18.083  11.020  -5.539  1.00  0.00    -0.343 N 
ATOM      7  C   PHE A   2      16.887  11.745  -5.776  1.00  0.00     0.243 C 
ATOM      8  O   PHE A   2      16.906  12.796  -6.474  1.00  0.00    -0.273 OA
ATOM      9  H   UNL     1      18.155  10.386  -4.719  1.00  0.00     0.164 HD
BRANCH   7  10
ATOM     10  CA  PHE A   2      15.652  11.313  -5.056  1.00  0.00     0.175 C 
BRANCH  10  11
ATOM     11  N   PHE A   2      14.455  11.740  -5.767  1.00  0.00    -0.343 N 
ATOM     12  C   SER A   1      13.916  13.050  -5.637  1.00  0.00     0.239 C 
ATOM     13  O   SER A   1      14.444  13.870  -4.836  1.00  0.00    -0.273 OA
ATOM     14  H   UNL     1      13.869  11.000  -6.212  1.00  0.00     0.164 HD
BRANCH  12  15
ATOM     15  CA  SER A   1      12.662  13.410  -6.389  1.00  0.00     0.167 C 
BRANCH  15  16
ATOM     16  N   SER A   1      12.472  14.862  -6.376  1.00  0.00    -0.318 NA
ATOM     17  H   UNL     1      11.539  15.086  -6.793  1.00  0.00     0.119 HD
ATOM     18  H   UNL     1      13.202  15.317  -6.972  1.00  0.00     0.119 HD
ENDBRANCH  15  16
BRANCH  15  19
ATOM     19  CB  SER A   1      12.687  12.878  -7.844  1.00  0.00     0.184 C 
BRANCH  19  20
ATOM     20  OG  SER A   1      11.437  13.048  -8.451  1.00  0.00    -0.394 OA
ATOM     21  H   UNL     1      10.831  12.368  -8.054  1.00  0.00     0.210 HD
ENDBRANCH  19  20
ENDBRANCH  15  19
ENDBRANCH  12  15
ENDBRANCH  10  11
BRANCH  10  22
ATOM     22  CB  PHE A   2      15.610   9.774  -4.880  1.00  0.00     0.070 C 
BRANCH  22  23
ATOM     23  CG  PHE A   2      14.435   9.292  -4.092  1.00  0.00    -0.045 A 
ATOM     24  CD1 PHE A   2      13.898  10.048  -3.033  1.00  0.00     0.004 A 
ATOM     25  CD2 PHE A   2      13.964   7.991  -4.310  1.00  0.00     0.004 A 
ATOM     26  CE1 PHE A   2      12.866   9.535  -2.258  1.00  0.00     0.000 A 
ATOM     27  CE2 PHE A   2      12.937   7.477  -3.520  1.00  0.00     0.000 A 
ATOM     28  CZ  PHE A   2      12.384   8.251  -2.500  1.00  0.00     0.000 A 
ENDBRANCH  22  23
ENDBRANCH  10  22
ENDBRANCH   7  10
ENDBRANCH   5   6
BRANCH   5  29
ATOM     29  CB  LEU A   3      20.164  12.251  -5.217  1.00  0.00     0.038 C 
BRANCH  29  30
ATOM     30  CG  LEU A   3      20.416  11.679  -3.791  1.00  0.00    -0.015 C 
ATOM     31  CD1 LEU A   3      21.817  12.066  -3.316  1.00  0.00     0.007 C 
ATOM     32  CD2 LEU A   3      19.368  12.170  -2.782  1.00  0.00     0.007 C 
ENDBRANCH  29  30
ENDBRANCH   5  29
ENDBRANCH   1   5
BRANCH   3  33
ATOM     33  CA  ASN A   4      21.348   8.745  -8.157  1.00  0.00     0.180 C 
BRANCH  33  34
ATOM     34  C   ASN A   4      22.714   9.207  -8.528  1.00  0.00     0.243 C 
ATOM     35  N   LYS A   5      23.821   8.720  -7.783  1.00  0.00    -0.343 N 
ATOM     36  O   ASN A   4      22.879  10.030  -9.470  1.00  0.00    -0.273 OA
ATOM     37  H   UNL     1      23.667   8.003  -7.038  1.00  0.00     0.164 HD
BRANCH  35  38
ATOM     38  CA  LYS A   5      25.183   9.128  -8.071  1.00  0.00     0.171 C 
BRANCH  38  39
ATOM     39  C   LYS A   5      25.900   7.973  -8.686  1.00  0.00     0.243 C 
ATOM     40  N   ASN A   6      25.914   7.868 -10.103  1.00  0.00    -0.341 N 
ATOM     41  O   LYS A   5      26.446   7.091  -7.970  1.00  0.00    -0.273 OA
ATOM     42  H   UNL     1      25.492   8.653 -10.652  1.00  0.00     0.164 HD
BRANCH  40  43
ATOM     43  CA  ASN A   6      26.542   6.753 -10.803  1.00  0.00     0.201 C 
BRANCH  43  44
ATOM     44  C   ASN A   6      27.993   6.643 -10.415  1.00  0.00     0.326 C 
ATOM     45  O   ASN A   6      28.795   7.579 -10.677  1.00  0.00    -0.250 OA
BRANCH  44  46
ATOM     46  OXT ASN A   6      28.450   5.500  -9.767  1.00  0.00    -0.480 OA
ATOM     47  H   UNL     1      29.422   5.409  -9.498  1.00  0.00     0.296 HD
ENDBRANCH  44  46
ENDBRANCH  43  44
BRANCH  43  48
ATOM     48  CB  ASN A   6      26.426   6.948 -12.323  1.00  0.00     0.136 C 
BRANCH  48  49
ATOM     49  CG  ASN A   6      25.012   7.182 -12.773  1.00  0.00     0.220 C 
ATOM     50  ND2 ASN A   6      24.755   8.090 -13.835  1.00  0.00    -0.370 N 
ATOM     51  OD1 ASN A   6      24.055   6.562 -12.240  1.00  0.00    -0.275 OA
ATOM     52  H   UNL     1      23.776   8.258 -14.157  1.00  0.00     0.159 HD
ATOM     53  H   UNL     1      25.534   8.599 -14.309  1.00  0.00     0.159 HD
ENDBRANCH  48  49
ENDBRANCH  43  48
ENDBRANCH  40  43
ENDBRANCH  38  39
BRANCH  38  54
ATOM     54  CB  LYS A   5      25.870   9.613  -6.799  1.00  0.00     0.035 C 
BRANCH  54  55
ATOM     55  CG  LYS A   5      25.170  10.852  -6.227  1.00  0.00     0.004 C 
BRANCH  55  56
ATOM     56  CD  LYS A   5      25.869  11.362  -4.962  1.00  0.00     0.015 C 
BRANCH  56  57
ATOM     57  CE  LYS A   5      27.188  12.095  -5.261  1.00  0.00     0.077 C 
BRANCH  57  58
ATOM     58  NZ  LYS A   5      27.751  12.687  -4.049  1.00  0.00    -0.330 NA
ATOM     59  H   UNL     1      27.894  11.932  -3.340  1.00  0.00     0.118 HD
ATOM     60  H   UNL     1      27.062  13.369  -3.654  1.00  0.00     0.118 HD
ENDBRANCH  57  58
ENDBRANCH  56  57
ENDBRANCH  55  56
ENDBRANCH  54  55
ENDBRANCH  38  54
ENDBRANCH  35  38
ENDBRANCH  33  34
BRANCH  33  61
ATOM     61  CB  ASN A   4      20.662   8.000  -9.304  1.00  0.00     0.134 C 
BRANCH  61  62
ATOM     62  CG  ASN A   4      21.416   6.775  -9.755  1.00  0.00     0.220 C 
ATOM     63  ND2 ASN A   4      21.251   6.291 -11.087  1.00  0.00    -0.370 N 
ATOM     64  OD1 ASN A   4      22.125   6.121  -8.943  1.00  0.00    -0.275 OA
ATOM     65  H   UNL     1      20.652   6.805 -11.771  1.00  0.00     0.159 HD
ATOM     66  H   UNL     1      21.712   5.404 -11.386  1.00  0.00     0.159 HD
ENDBRANCH  61  62
ENDBRANCH  33  61
ENDBRANCH   3  33
TORSDOF 28
