REMARK SMILES CC(C)C[C@H](NC(=O)[C@H](CCCNC(=N)N)NC(=O)[C@H](C)NC(=O)[C@@H](N)CO)C(=O)N[C@@H](CCCNC(=N)N)C(=O)N[C@@H](CC(N)=O)C(=O)O
REMARK SMILES IDX 7 1 8 2 6 3 9 5 17 6 18 7 19 8 20 10 21 11 22 12 23 13 24 14
REMARK SMILES IDX 25 16 26 17 27 20 28 21 10 23 11 24 12 25 13 26 14 27 16 28
REMARK SMILES IDX 15 32 5 34 29 35 31 36 30 37 32 39 40 40 42 41 41 42 43 44
REMARK SMILES IDX 48 45 49 46 50 47 44 49 45 50 46 51 47 52 33 55 34 56 35 57
REMARK SMILES IDX 36 58 37 59 39 60 38 64 4 66 2 67 1 68 3 69
REMARK H PARENT 6 4 17 9 22 15 26 18 26 19 28 22 13 29 16 30 16 31 15 33 31 38
REMARK H PARENT 42 43 50 48 46 53 46 54 36 61 39 62 39 63 38 65
ROOT
ATOM      1  C   ARG A   3      20.033  10.078  -6.468  1.00  0.00     0.243 C 
ATOM      2  O   ARG A   3      20.154   9.156  -5.615  1.00  0.00    -0.273 OA
ATOM      3  N   LEU A   4      20.564   9.923  -7.774  1.00  0.00    -0.343 N 
ATOM      4  H   UNL     1      20.404  10.668  -8.490  1.00  0.00     0.164 HD
ENDROOT
BRANCH   1   5
ATOM      5  CA  ARG A   3      19.318  11.343  -6.130  1.00  0.00     0.171 C 
BRANCH   5   6
ATOM      6  N   ARG A   3      18.065  11.020  -5.490  1.00  0.00    -0.343 N 
ATOM      7  C   ALA A   2      16.870  11.746  -5.732  1.00  0.00     0.242 C 
ATOM      8  O   ALA A   2      16.891  12.788  -6.446  1.00  0.00    -0.273 OA
ATOM      9  H   UNL     1      18.104  10.374  -4.672  1.00  0.00     0.164 HD
BRANCH   7  10
ATOM     10  CA  ALA A   2      15.615  11.293  -5.039  1.00  0.00     0.168 C 
ATOM     11  CB  ALA A   2      15.567   9.761  -4.906  1.00  0.00     0.041 C 
BRANCH  10  12
ATOM     12  N   ALA A   2      14.438  11.732  -5.766  1.00  0.00    -0.343 N 
ATOM     13  C   SER A   1      13.913  13.047  -5.635  1.00  0.00     0.239 C 
ATOM     14  O   SER A   1      14.449  13.863  -4.835  1.00  0.00    -0.273 OA
ATOM     15  H   UNL     1      13.848  11.000  -6.221  1.00  0.00     0.164 HD
BRANCH  13  16
ATOM     16  CA  SER A   1      12.659  13.414  -6.389  1.00  0.00     0.167 C 
BRANCH  16  17
ATOM     17  N   SER A   1      12.455  14.864  -6.398  1.00  0.00    -0.318 NA
ATOM     18  H   UNL     1      13.317  15.339  -6.753  1.00  0.00     0.119 HD
ATOM     19  H   UNL     1      12.286  15.192  -5.419  1.00  0.00     0.119 HD
ENDBRANCH  16  17
BRANCH  16  20
ATOM     20  CB  SER A   1      12.689  12.893  -7.844  1.00  0.00     0.184 C 
BRANCH  20  21
ATOM     21  OG  SER A   1      11.435  13.054  -8.447  1.00  0.00    -0.394 OA
ATOM     22  H   UNL     1      10.842  12.355  -8.065  1.00  0.00     0.210 HD
ENDBRANCH  20  21
ENDBRANCH  16  20
ENDBRANCH  13  16
ENDBRANCH  10  12
ENDBRANCH   7  10
ENDBRANCH   5   6
BRANCH   5  23
ATOM     23  CB  ARG A   3      20.167  12.246  -5.230  1.00  0.00     0.037 C 
BRANCH  23  24
ATOM     24  CG  ARG A   3      20.417  11.694  -3.808  1.00  0.00     0.024 C 
BRANCH  24  25
ATOM     25  CD  ARG A   3      21.809  12.074  -3.301  1.00  0.00     0.116 C 
BRANCH  25  26
ATOM     26  NE  ARG A   3      21.909  13.520  -3.095  1.00  0.00    -0.357 N 
ATOM     27  CZ  ARG A   3      22.634  14.401  -3.967  1.00  0.00     0.185 C 
ATOM     28  NH2 ARG A   3      22.645  15.805  -3.698  1.00  0.00    -0.370 N 
ATOM     29  H   UNL     1      21.367  13.937  -2.306  1.00  0.00     0.163 HD
ATOM     30  H   UNL     1      23.165  16.466  -4.318  1.00  0.00     0.159 HD
ATOM     31  H   UNL     1      22.132  16.190  -2.875  1.00  0.00     0.159 HD
BRANCH  27  32
ATOM     32  NH1 ARG A   3      23.274  13.934  -4.991  1.00  0.00    -0.270 NA
ATOM     33  H   UNL     1      23.808  14.556  -5.638  1.00  0.00     0.191 HD
ENDBRANCH  27  32
ENDBRANCH  25  26
ENDBRANCH  24  25
ENDBRANCH  23  24
ENDBRANCH   5  23
ENDBRANCH   1   5
BRANCH   3  34
ATOM     34  CA  LEU A   4      21.349   8.762  -8.142  1.00  0.00     0.171 C 
BRANCH  34  35
ATOM     35  C   LEU A   4      22.714   9.217  -8.522  1.00  0.00     0.243 C 
ATOM     36  N   ARG A   5      23.822   8.721  -7.786  1.00  0.00    -0.343 N 
ATOM     37  O   LEU A   4      22.878  10.033  -9.469  1.00  0.00    -0.273 OA
ATOM     38  H   UNL     1      23.666   8.032  -7.015  1.00  0.00     0.164 HD
BRANCH  36  39
ATOM     39  CA  ARG A   5      25.185   9.122  -8.073  1.00  0.00     0.171 C 
BRANCH  39  40
ATOM     40  C   ARG A   5      25.899   7.968  -8.686  1.00  0.00     0.243 C 
ATOM     41  N   ASN A   6      25.913   7.864 -10.102  1.00  0.00    -0.341 N 
ATOM     42  O   ARG A   5      26.447   7.087  -7.969  1.00  0.00    -0.273 OA
ATOM     43  H   UNL     1      25.489   8.647 -10.651  1.00  0.00     0.164 HD
BRANCH  41  44
ATOM     44  CA  ASN A   6      26.542   6.751 -10.804  1.00  0.00     0.201 C 
BRANCH  44  45
ATOM     45  C   ASN A   6      27.993   6.642 -10.416  1.00  0.00     0.326 C 
ATOM     46  O   ASN A   6      28.794   7.579 -10.677  1.00  0.00    -0.250 OA
BRANCH  45  47
ATOM     47  OXT ASN A   6      28.451   5.499  -9.768  1.00  0.00    -0.480 OA
ATOM     48  H   UNL     1      29.424   5.409  -9.499  1.00  0.00     0.296 HD
ENDBRANCH  45  47
ENDBRANCH  44  45
BRANCH  44  49
ATOM     49  CB  ASN A   6      26.424   6.946 -12.323  1.00  0.00     0.136 C 
BRANCH  49  50
ATOM     50  CG  ASN A   6      25.010   7.180 -12.773  1.00  0.00     0.220 C 
ATOM     51  ND2 ASN A   6      24.753   8.090 -13.833  1.00  0.00    -0.370 N 
ATOM     52  OD1 ASN A   6      24.053   6.558 -12.243  1.00  0.00    -0.275 OA
ATOM     53  H   UNL     1      25.533   8.600 -14.306  1.00  0.00     0.159 HD
ATOM     54  H   UNL     1      23.775   8.258 -14.156  1.00  0.00     0.159 HD
ENDBRANCH  49  50
ENDBRANCH  44  49
ENDBRANCH  41  44
ENDBRANCH  39  40
BRANCH  39  55
ATOM     55  CB  ARG A   5      25.862   9.605  -6.796  1.00  0.00     0.037 C 
BRANCH  55  56
ATOM     56  CG  ARG A   5      25.168  10.860  -6.269  1.00  0.00     0.024 C 
BRANCH  56  57
ATOM     57  CD  ARG A   5      25.848  11.386  -5.013  1.00  0.00     0.116 C 
BRANCH  57  58
ATOM     58  NE  ARG A   5      25.376  10.688  -3.819  1.00  0.00    -0.357 N 
ATOM     59  CZ  ARG A   5      25.467  11.283  -2.526  1.00  0.00     0.185 C 
ATOM     60  NH2 ARG A   5      26.105  12.548  -2.351  1.00  0.00    -0.370 N 
ATOM     61  H   UNL     1      24.890   9.766  -3.911  1.00  0.00     0.163 HD
ATOM     62  H   UNL     1      26.699  12.983  -3.090  1.00  0.00     0.159 HD
ATOM     63  H   UNL     1      26.072  13.028  -1.424  1.00  0.00     0.159 HD
BRANCH  59  64
ATOM     64  NH1 ARG A   5      24.953  10.673  -1.507  1.00  0.00    -0.270 NA
ATOM     65  H   UNL     1      24.994  11.078  -0.545  1.00  0.00     0.191 HD
ENDBRANCH  59  64
ENDBRANCH  57  58
ENDBRANCH  56  57
ENDBRANCH  55  56
ENDBRANCH  39  55
ENDBRANCH  36  39
ENDBRANCH  34  35
BRANCH  34  66
ATOM     66  CB  LEU A   4      20.655   8.000  -9.274  1.00  0.00     0.038 C 
BRANCH  66  67
ATOM     67  CG  LEU A   4      21.448   6.771  -9.769  1.00  0.00    -0.015 C 
ATOM     68  CD1 LEU A   4      21.762   5.779  -8.639  1.00  0.00     0.007 C 
ATOM     69  CD2 LEU A   4      20.661   6.067 -10.878  1.00  0.00     0.007 C 
ENDBRANCH  66  67
ENDBRANCH  34  66
ENDBRANCH   3  34
TORSDOF 29
