REMARK SMILES CC(C)C[C@H](NC(=O)CNC(=O)[C@@H](N)CO)C(=O)N[C@@H](CCCNC(=N)N)C(=O)N[C@@H](CCCNC(=N)N)C(=O)N[C@@H](CC(N)=O)C(=O)O
REMARK SMILES IDX 17 1 18 2 19 3 5 5 6 6 7 7 8 8 9 10 10 11 11 12 12 13 13 15
REMARK SMILES IDX 14 16 15 19 16 20 4 22 2 23 1 24 3 25 20 26 28 27 30 28
REMARK SMILES IDX 29 29 31 31 39 32 41 33 40 34 42 36 47 37 48 38 49 39 43 41
REMARK SMILES IDX 44 42 45 43 46 44 32 47 33 48 34 49 35 50 36 51 38 52 37 56
REMARK SMILES IDX 21 58 22 59 23 60 24 61 25 62 27 63 26 67
REMARK H PARENT 19 4 6 9 10 14 14 17 14 18 16 21 30 30 41 35 49 40 45 45 45 46
REMARK H PARENT 35 53 38 54 38 55 37 57 24 64 27 65 27 66 26 68
ROOT
ATOM      1  C   LEU A   3      20.038  10.073  -6.468  1.00  0.00     0.243 C 
ATOM      2  O   LEU A   3      20.162   9.149  -5.618  1.00  0.00    -0.273 OA
ATOM      3  N   ARG A   4      20.564   9.920  -7.776  1.00  0.00    -0.343 N 
ATOM      4  H   UNL     1      20.400  10.664  -8.493  1.00  0.00     0.164 HD
ENDROOT
BRANCH   1   5
ATOM      5  CA  LEU A   3      19.307  11.327  -6.130  1.00  0.00     0.171 C 
BRANCH   5   6
ATOM      6  N   LEU A   3      18.032  10.982  -5.536  1.00  0.00    -0.343 N 
ATOM      7  C   GLY A   2      16.866  11.760  -5.738  1.00  0.00     0.240 C 
ATOM      8  O   GLY A   2      16.902  12.808  -6.441  1.00  0.00    -0.273 OA
ATOM      9  H   UNL     1      17.988  10.192  -4.850  1.00  0.00     0.164 HD
BRANCH   7  10
ATOM     10  CA  GLY A   2      15.630  11.334  -5.021  1.00  0.00     0.216 C 
BRANCH  10  11
ATOM     11  N   GLY A   2      14.438  11.727  -5.741  1.00  0.00    -0.346 N 
ATOM     12  C   SER A   1      13.905  13.044  -5.633  1.00  0.00     0.239 C 
ATOM     13  O   SER A   1      14.438  13.872  -4.843  1.00  0.00    -0.273 OA
ATOM     14  H   UNL     1      13.857  10.959  -6.142  1.00  0.00     0.164 HD
BRANCH  12  15
ATOM     15  CA  SER A   1      12.657  13.406  -6.392  1.00  0.00     0.167 C 
BRANCH  15  16
ATOM     16  N   SER A   1      12.472  14.859  -6.385  1.00  0.00    -0.318 NA
ATOM     17  H   UNL     1      11.540  15.085  -6.803  1.00  0.00     0.119 HD
ATOM     18  H   UNL     1      13.204  15.309  -6.982  1.00  0.00     0.119 HD
ENDBRANCH  15  16
BRANCH  15  19
ATOM     19  CB  SER A   1      12.693  12.868  -7.840  1.00  0.00     0.184 C 
BRANCH  19  20
ATOM     20  OG  SER A   1      11.442  13.043  -8.444  1.00  0.00    -0.394 OA
ATOM     21  H   UNL     1      11.545  12.750  -9.387  1.00  0.00     0.210 HD
ENDBRANCH  19  20
ENDBRANCH  15  19
ENDBRANCH  12  15
ENDBRANCH  10  11
ENDBRANCH   7  10
ENDBRANCH   5   6
BRANCH   5  22
ATOM     22  CB  LEU A   3      20.132  12.238  -5.209  1.00  0.00     0.038 C 
BRANCH  22  23
ATOM     23  CG  LEU A   3      20.405  11.669  -3.790  1.00  0.00    -0.015 C 
ATOM     24  CD1 LEU A   3      21.806  12.071  -3.322  1.00  0.00     0.007 C 
ATOM     25  CD2 LEU A   3      19.353  12.146  -2.781  1.00  0.00     0.007 C 
ENDBRANCH  22  23
ENDBRANCH   5  22
ENDBRANCH   1   5
BRANCH   3  26
ATOM     26  CA  ARG A   4      21.349   8.760  -8.146  1.00  0.00     0.171 C 
BRANCH  26  27
ATOM     27  C   ARG A   4      22.714   9.216  -8.524  1.00  0.00     0.243 C 
ATOM     28  N   ARG A   5      23.822   8.721  -7.786  1.00  0.00    -0.343 N 
ATOM     29  O   ARG A   4      22.879  10.034  -9.470  1.00  0.00    -0.273 OA
ATOM     30  H   UNL     1      23.666   8.030  -7.017  1.00  0.00     0.164 HD
BRANCH  28  31
ATOM     31  CA  ARG A   5      25.186   9.122  -8.073  1.00  0.00     0.171 C 
BRANCH  31  32
ATOM     32  C   ARG A   5      25.900   7.968  -8.685  1.00  0.00     0.243 C 
ATOM     33  N   ASN A   6      25.913   7.864 -10.102  1.00  0.00    -0.341 N 
ATOM     34  O   ARG A   5      26.447   7.087  -7.969  1.00  0.00    -0.273 OA
ATOM     35  H   UNL     1      25.488   8.647 -10.651  1.00  0.00     0.164 HD
BRANCH  33  36
ATOM     36  CA  ASN A   6      26.542   6.750 -10.804  1.00  0.00     0.201 C 
BRANCH  36  37
ATOM     37  C   ASN A   6      27.992   6.642 -10.415  1.00  0.00     0.326 C 
ATOM     38  O   ASN A   6      28.794   7.578 -10.677  1.00  0.00    -0.250 OA
BRANCH  37  39
ATOM     39  OXT ASN A   6      28.451   5.499  -9.768  1.00  0.00    -0.480 OA
ATOM     40  H   UNL     1      29.423   5.409  -9.499  1.00  0.00     0.296 HD
ENDBRANCH  37  39
ENDBRANCH  36  37
BRANCH  36  41
ATOM     41  CB  ASN A   6      26.424   6.946 -12.323  1.00  0.00     0.136 C 
BRANCH  41  42
ATOM     42  CG  ASN A   6      25.010   7.180 -12.773  1.00  0.00     0.220 C 
ATOM     43  ND2 ASN A   6      24.754   8.090 -13.833  1.00  0.00    -0.370 N 
ATOM     44  OD1 ASN A   6      24.053   6.557 -12.243  1.00  0.00    -0.275 OA
ATOM     45  H   UNL     1      25.533   8.600 -14.305  1.00  0.00     0.159 HD
ATOM     46  H   UNL     1      23.775   8.257 -14.157  1.00  0.00     0.159 HD
ENDBRANCH  41  42
ENDBRANCH  36  41
ENDBRANCH  33  36
ENDBRANCH  31  32
BRANCH  31  47
ATOM     47  CB  ARG A   5      25.862   9.605  -6.795  1.00  0.00     0.037 C 
BRANCH  47  48
ATOM     48  CG  ARG A   5      25.165  10.859  -6.269  1.00  0.00     0.024 C 
BRANCH  48  49
ATOM     49  CD  ARG A   5      25.839  11.391  -5.013  1.00  0.00     0.116 C 
BRANCH  49  50
ATOM     50  NE  ARG A   5      25.378  10.686  -3.820  1.00  0.00    -0.357 N 
ATOM     51  CZ  ARG A   5      25.469  11.281  -2.526  1.00  0.00     0.185 C 
ATOM     52  NH2 ARG A   5      26.107  12.546  -2.351  1.00  0.00    -0.370 N 
ATOM     53  H   UNL     1      24.895   9.763  -3.912  1.00  0.00     0.163 HD
ATOM     54  H   UNL     1      26.079  13.024  -1.423  1.00  0.00     0.159 HD
ATOM     55  H   UNL     1      26.697  12.982  -3.092  1.00  0.00     0.159 HD
BRANCH  51  56
ATOM     56  NH1 ARG A   5      24.954  10.672  -1.507  1.00  0.00    -0.270 NA
ATOM     57  H   UNL     1      24.995  11.076  -0.545  1.00  0.00     0.191 HD
ENDBRANCH  51  56
ENDBRANCH  49  50
ENDBRANCH  48  49
ENDBRANCH  47  48
ENDBRANCH  31  47
ENDBRANCH  28  31
ENDBRANCH  26  27
BRANCH  26  58
ATOM     58  CB  ARG A   4      20.657   7.996  -9.278  1.00  0.00     0.037 C 
BRANCH  58  59
ATOM     59  CG  ARG A   4      21.454   6.779  -9.771  1.00  0.00     0.024 C 
BRANCH  59  60
ATOM     60  CD  ARG A   4      21.765   5.769  -8.657  1.00  0.00     0.116 C 
BRANCH  60  61
ATOM     61  NE  ARG A   4      22.337   4.550  -9.227  1.00  0.00    -0.357 N 
ATOM     62  CZ  ARG A   4      21.552   3.551  -9.896  1.00  0.00     0.185 C 
ATOM     63  NH2 ARG A   4      22.197   2.408 -10.463  1.00  0.00    -0.370 N 
ATOM     64  H   UNL     1      23.362   4.382  -9.107  1.00  0.00     0.163 HD
ATOM     65  H   UNL     1      23.234   2.301 -10.399  1.00  0.00     0.159 HD
ATOM     66  H   UNL     1      21.646   1.667 -10.950  1.00  0.00     0.159 HD
BRANCH  62  67
ATOM     67  NH1 ARG A   4      20.265   3.678  -9.981  1.00  0.00    -0.270 NA
ATOM     68  H   UNL     1      19.673   2.964 -10.460  1.00  0.00     0.191 HD
ENDBRANCH  62  67
ENDBRANCH  60  61
ENDBRANCH  59  60
ENDBRANCH  58  59
ENDBRANCH  26  58
ENDBRANCH   3  26
TORSDOF 29
