REMARK SMILES CC(C)C[C@H](NC(=O)[C@H](Cc1ccccc1)NC(=O)[C@@H](N)CO)C(=O)N[C@@H](CCCNC(=N)N)C(=O)N[C@@H](CCCNC(=N)N)C(=O)N[C@@H](CCCNC(=N)N)C(=O)O
REMARK SMILES IDX 35 1 37 2 27 3 26 4 24 5 5 6 6 7 7 8 9 9 17 10 18 11 20 12
REMARK SMILES IDX 21 13 22 19 23 20 19 25 10 30 11 31 12 32 16 33 13 34 15 35
REMARK SMILES IDX 14 36 8 37 4 42 2 43 1 44 3 45 25 46 28 51 29 52 30 53 31 54
REMARK SMILES IDX 32 55 34 56 33 59 36 67 38 70 46 71 48 72 47 73 49 76 57 77
REMARK SMILES IDX 58 78 59 81 50 86 51 87 52 88 53 89 54 90 56 91 55 94 39 104
REMARK SMILES IDX 40 105 41 106 42 107 43 108 45 109 44 112
REMARK H PARENT 21 15 21 17 23 23 17 28 6 40 26 49 31 57 33 61 34 63 34 65
REMARK H PARENT 59 84 53 92 55 96 56 98 56 100 48 102 42 110 44 114 45 116
REMARK H PARENT 45 118 37 120
ROOT
ATOM      1  C   ARG A   4       1.578  -1.765   0.312  1.00  0.00     0.243 C 
ATOM      2  N   ARG A   5       2.827  -2.442   0.522  1.00  0.00    -0.343 N 
ENDROOT
BRANCH   1   3
ATOM      3  CA  ARG A   4       0.368  -2.543  -0.134  1.00  0.00     0.171 C 
BRANCH   3   4
ATOM      4  N   ARG A   4      -0.828  -2.149   0.631  1.00  0.00    -0.343 N 
ATOM      5  C   LEU A   3      -1.547  -0.907   0.471  1.00  0.00     0.243 C 
BRANCH   5   6
ATOM      6  CA  LEU A   3      -2.791  -0.570   1.275  1.00  0.00     0.171 C 
BRANCH   6   7
ATOM      7  N   LEU A   3      -3.819  -0.020   0.389  1.00  0.00    -0.343 N 
ATOM      8  C   PHE A   2      -4.768   0.966   0.826  1.00  0.00     0.243 C 
BRANCH   8   9
ATOM      9  CA  PHE A   2      -5.962   1.292  -0.036  1.00  0.00     0.175 C 
BRANCH   9  10
ATOM     10  N   PHE A   2      -6.990   1.993   0.742  1.00  0.00    -0.343 N 
ATOM     11  C   SER A   1      -7.910   1.287   1.595  1.00  0.00     0.239 C 
BRANCH  11  12
ATOM     12  CA  SER A   1      -8.979   2.029   2.356  1.00  0.00     0.167 C 
BRANCH  12  13
ATOM     13  N   SER A   1      -8.366   2.985   3.283  1.00  0.00    -0.318 NA
ATOM     14 WAT  SER A   1      -6.083   1.650   4.697  1.00  0.00     0.000 W 
BRANCH  13  15
ATOM     15  H   UNL     1      -9.099   3.314   3.953  1.00  0.00     0.119 HD
ATOM     16 WAT  UNL     1     -10.500   3.942   5.234  1.00  0.00     0.000 W 
ENDBRANCH  13  15
BRANCH  13  17
ATOM     17  H   UNL     1      -8.027   3.826   2.758  1.00  0.00     0.119 HD
ATOM     18 WAT  UNL     1      -7.379   5.432   1.757  1.00  0.00     0.000 W 
ENDBRANCH  13  17
ENDBRANCH  12  13
BRANCH  12  19
ATOM     19  CB  SER A   1      -9.956   2.720   1.386  1.00  0.00     0.184 C 
BRANCH  19  20
ATOM     20  OG  SER A   1     -10.995   3.343   2.090  1.00  0.00    -0.394 OA
ATOM     21 WAT  SER A   1     -12.523   5.027   0.134  1.00  0.00     0.000 W 
ATOM     22 WAT  SER A   1      -9.793   4.602   4.534  1.00  0.00     0.000 W 
BRANCH  20  23
ATOM     23  H   UNL     1     -11.602   2.619   2.397  1.00  0.00     0.210 HD
ATOM     24 WAT  UNL     1     -12.824   1.161   3.014  1.00  0.00     0.000 W 
ENDBRANCH  20  23
ENDBRANCH  19  20
ENDBRANCH  12  19
ENDBRANCH  11  12
BRANCH  11  25
ATOM     25  O   SER A   1      -7.838   0.031   1.702  1.00  0.00    -0.273 OA
ATOM     26 WAT  SER A   1      -5.727  -1.484   0.203  1.00  0.00     0.000 W 
ATOM     27 WAT  SER A   1      -9.779  -1.438   3.456  1.00  0.00     0.000 W 
ENDBRANCH  11  25
BRANCH  10  28
ATOM     28  H   UNL     1      -6.981   3.039   0.777  1.00  0.00     0.164 HD
ATOM     29 WAT  UNL     1      -6.963   5.038   0.844  1.00  0.00     0.000 W 
ENDBRANCH  10  28
ENDBRANCH   9  10
BRANCH   9  30
ATOM     30  CB  PHE A   2      -5.574   2.084  -1.304  1.00  0.00     0.070 C 
BRANCH  30  31
ATOM     31  CG  PHE A   2      -4.868   3.392  -1.027  1.00  0.00    -0.045 A 
ATOM     32  CD1 PHE A   2      -3.477   3.421  -0.823  1.00  0.00     0.004 A 
ATOM     33  CD2 PHE A   2      -5.588   4.598  -1.010  1.00  0.00     0.004 A 
ATOM     34  CE1 PHE A   2      -2.822   4.637  -0.603  1.00  0.00     0.000 A 
ATOM     35  CE2 PHE A   2      -4.929   5.812  -0.793  1.00  0.00     0.000 A 
ATOM     36  CZ  PHE A   2      -3.547   5.830  -0.584  1.00  0.00     0.000 A 
ENDBRANCH  30  31
ENDBRANCH   9  30
ENDBRANCH   8   9
BRANCH   8  37
ATOM     37  O   PHE A   2      -4.587   1.582   1.912  1.00  0.00    -0.273 OA
ATOM     38 WAT  PHE A   2      -2.211   0.935   3.626  1.00  0.00     0.000 W 
ATOM     39 WAT  PHE A   2      -6.533   3.694   2.780  1.00  0.00     0.000 W 
ENDBRANCH   8  37
BRANCH   7  40
ATOM     40  H   UNL     1      -3.944  -0.444  -0.558  1.00  0.00     0.164 HD
ATOM     41 WAT  UNL     1      -4.181  -1.254  -2.371  1.00  0.00     0.000 W 
ENDBRANCH   7  40
ENDBRANCH   6   7
BRANCH   6  42
ATOM     42  CB  LEU A   3      -3.379  -1.714   2.141  1.00  0.00     0.038 C 
BRANCH  42  43
ATOM     43  CG  LEU A   3      -3.962  -2.918   1.343  1.00  0.00    -0.015 C 
ATOM     44  CD1 LEU A   3      -5.460  -2.737   1.047  1.00  0.00     0.007 C 
ATOM     45  CD2 LEU A   3      -3.757  -4.226   2.122  1.00  0.00     0.007 C 
ENDBRANCH  42  43
ENDBRANCH   6  42
ENDBRANCH   5   6
BRANCH   5  46
ATOM     46  O   LEU A   3      -1.111  -0.028  -0.319  1.00  0.00    -0.273 OA
ATOM     47 WAT  LEU A   3       1.339  -0.572  -1.963  1.00  0.00     0.000 W 
ATOM     48 WAT  LEU A   3      -2.521   2.609  -0.556  1.00  0.00     0.000 W 
ENDBRANCH   5  46
BRANCH   4  49
ATOM     49  H   UNL     1      -1.185  -2.866   1.292  1.00  0.00     0.164 HD
ATOM     50 WAT  UNL     1      -1.873  -4.246   2.565  1.00  0.00     0.000 W 
ENDBRANCH   4  49
ENDBRANCH   3   4
BRANCH   3  51
ATOM     51  CB  ARG A   4       0.168  -2.453  -1.660  1.00  0.00     0.037 C 
BRANCH  51  52
ATOM     52  CG  ARG A   4      -1.039  -3.282  -2.130  1.00  0.00     0.024 C 
BRANCH  52  53
ATOM     53  CD  ARG A   4      -1.214  -3.229  -3.654  1.00  0.00     0.116 C 
BRANCH  53  54
ATOM     54  NE  ARG A   4      -0.183  -4.009  -4.347  1.00  0.00    -0.357 N 
ATOM     55  CZ  ARG A   4      -0.146  -4.171  -5.774  1.00  0.00     0.185 C 
ATOM     56  NH2 ARG A   4       0.823  -5.043  -6.355  1.00  0.00    -0.370 N 
BRANCH  54  57
ATOM     57  H   UNL     1       0.541  -4.513  -3.785  1.00  0.00     0.163 HD
ATOM     58 WAT  UNL     1       1.925  -5.478  -2.711  1.00  0.00     0.000 W 
ENDBRANCH  54  57
BRANCH  55  59
ATOM     59  NH1 ARG A   4      -0.975  -3.544  -6.553  1.00  0.00    -0.270 NA
ATOM     60 WAT  ARG A   4      -1.238  -3.625  -9.540  1.00  0.00     0.000 W 
BRANCH  59  61
ATOM     61  H   UNL     1      -1.705  -2.887  -6.205  1.00  0.00     0.191 HD
ATOM     62 WAT  UNL     1      -3.106  -1.626  -5.537  1.00  0.00     0.000 W 
ENDBRANCH  59  61
ENDBRANCH  55  59
BRANCH  56  63
ATOM     63  H   UNL     1       1.485  -5.583  -5.754  1.00  0.00     0.159 HD
ATOM     64 WAT  UNL     1       2.754  -6.616  -4.604  1.00  0.00     0.000 W 
ENDBRANCH  56  63
BRANCH  56  65
ATOM     65  H   UNL     1       0.873  -5.167  -7.391  1.00  0.00     0.159 HD
ATOM     66 WAT  UNL     1       0.969  -5.402  -9.375  1.00  0.00     0.000 W 
ENDBRANCH  56  65
ENDBRANCH  53  54
ENDBRANCH  52  53
ENDBRANCH  51  52
ENDBRANCH   3  51
ENDBRANCH   1   3
BRANCH   1  67
ATOM     67  O   ARG A   4       1.500  -0.517   0.486  1.00  0.00    -0.273 OA
ATOM     68 WAT  ARG A   4       3.915   1.027   1.373  1.00  0.00     0.000 W 
ATOM     69 WAT  ARG A   4      -1.099   0.905   0.014  1.00  0.00     0.000 W 
ENDBRANCH   1  67
BRANCH   2  70
ATOM     70  CA  ARG A   5       3.996  -1.753   1.084  1.00  0.00     0.171 C 
BRANCH  70  71
ATOM     71  C   ARG A   5       4.583  -0.782   0.091  1.00  0.00     0.243 C 
ATOM     72  N   ARG A   6       5.314   0.359   0.563  1.00  0.00    -0.341 N 
BRANCH  71  73
ATOM     73  O   ARG A   5       4.472  -1.003  -1.148  1.00  0.00    -0.273 OA
ATOM     74 WAT  ARG A   5       5.638   0.928  -3.126  1.00  0.00     0.000 W 
ATOM     75 WAT  ARG A   5       3.040  -3.457  -2.112  1.00  0.00     0.000 W 
ENDBRANCH  71  73
BRANCH  72  76
ATOM     76  CA  ARG A   6       6.196   1.148  -0.302  1.00  0.00     0.192 C 
BRANCH  76  77
ATOM     77  C   ARG A   6       7.631   0.768  -0.065  1.00  0.00     0.326 C 
BRANCH  77  78
ATOM     78  O   ARG A   6       7.986   0.229   1.019  1.00  0.00    -0.250 OA
ATOM     79 WAT  ARG A   6      10.860  -0.515   1.454  1.00  0.00     0.000 W 
ATOM     80 WAT  ARG A   6       5.957  -0.307   3.163  1.00  0.00     0.000 W 
ENDBRANCH  77  78
BRANCH  77  81
ATOM     81  OXT ARG A   6       8.587   1.061  -1.036  1.00  0.00    -0.480 OA
ATOM     82 WAT  ARG A   6       8.549   4.054  -1.234  1.00  0.00     0.000 W 
ATOM     83 WAT  ARG A   6       7.785  -0.609  -3.396  1.00  0.00     0.000 W 
BRANCH  81  84
ATOM     84  H   UNL     1       9.564   0.832  -0.888  1.00  0.00     0.296 HD
ATOM     85 WAT  UNL     1      11.490   0.380  -0.595  1.00  0.00     0.000 W 
ENDBRANCH  81  84
ENDBRANCH  77  81
ENDBRANCH  76  77
BRANCH  76  86
ATOM     86  CB  ARG A   6       5.996   2.648  -0.036  1.00  0.00     0.039 C 
BRANCH  86  87
ATOM     87  CG  ARG A   6       4.592   3.109  -0.462  1.00  0.00     0.024 C 
BRANCH  87  88
ATOM     88  CD  ARG A   6       4.378   4.610  -0.227  1.00  0.00     0.116 C 
BRANCH  88  89
ATOM     89  NE  ARG A   6       5.180   5.423  -1.146  1.00  0.00    -0.357 N 
ATOM     90  CZ  ARG A   6       5.180   6.862  -1.135  1.00  0.00     0.185 C 
ATOM     91  NH2 ARG A   6       6.052   7.573  -2.012  1.00  0.00    -0.370 N 
BRANCH  89  92
ATOM     92  H   UNL     1       5.773   4.952  -1.865  1.00  0.00     0.163 HD
ATOM     93 WAT  UNL     1       6.909   4.050  -3.241  1.00  0.00     0.000 W 
ENDBRANCH  89  92
BRANCH  90  94
ATOM     94  NH1 ARG A   6       4.396   7.533  -0.351  1.00  0.00    -0.270 NA
ATOM     95 WAT  ARG A   6       4.077  10.501  -0.049  1.00  0.00     0.000 W 
BRANCH  94  96
ATOM     96  H   UNL     1       3.732   7.092   0.320  1.00  0.00     0.191 HD
ATOM     97 WAT  UNL     1       2.457   6.246   1.608  1.00  0.00     0.000 W 
ENDBRANCH  94  96
ENDBRANCH  90  94
BRANCH  91  98
ATOM     98  H   UNL     1       6.723   7.059  -2.626  1.00  0.00     0.159 HD
ATOM     99 WAT  UNL     1       8.009   6.075  -3.800  1.00  0.00     0.000 W 
ENDBRANCH  91  98
BRANCH  91 100
ATOM    100  H   UNL     1       6.047   8.618  -2.039  1.00  0.00     0.159 HD
ATOM    101 WAT  UNL     1       6.039  10.617  -2.089  1.00  0.00     0.000 W 
ENDBRANCH  91 100
ENDBRANCH  88  89
ENDBRANCH  87  88
ENDBRANCH  86  87
ENDBRANCH  76  86
ENDBRANCH  72  76
BRANCH  72 102
ATOM    102  H   UNL     1       5.336   0.540   1.593  1.00  0.00     0.164 HD
ATOM    103 WAT  UNL     1       5.378   0.887   3.563  1.00  0.00     0.000 W 
ENDBRANCH  72 102
ENDBRANCH  70  71
BRANCH  70 104
ATOM    104  CB  ARG A   5       5.062  -2.754   1.581  1.00  0.00     0.037 C 
BRANCH 104 105
ATOM    105  CG  ARG A   5       5.771  -3.532   0.452  1.00  0.00     0.024 C 
BRANCH 105 106
ATOM    106  CD  ARG A   5       6.742  -4.579   1.009  1.00  0.00     0.116 C 
BRANCH 106 107
ATOM    107  NE  ARG A   5       7.860  -3.932   1.698  1.00  0.00    -0.357 N 
ATOM    108  CZ  ARG A   5       7.974  -3.857   3.128  1.00  0.00     0.185 C 
ATOM    109  NH2 ARG A   5       9.044  -3.108   3.714  1.00  0.00    -0.370 N 
BRANCH 107 110
ATOM    110  H   UNL     1       8.555  -3.412   1.117  1.00  0.00     0.163 HD
ATOM    111 WAT  UNL     1       9.886  -2.417   0.004  1.00  0.00     0.000 W 
ENDBRANCH 107 110
BRANCH 108 112
ATOM    112  NH1 ARG A   5       7.120  -4.467   3.889  1.00  0.00    -0.270 NA
ATOM    113 WAT  ARG A   5       4.743  -6.148   3.164  1.00  0.00     0.000 W 
BRANCH 112 114
ATOM    114  H   UNL     1       7.186  -4.428   4.930  1.00  0.00     0.191 HD
ATOM    115 WAT  UNL     1       7.313  -4.351   6.925  1.00  0.00     0.000 W 
ENDBRANCH 112 114
ENDBRANCH 108 112
BRANCH 109 116
ATOM    116  H   UNL     1       9.169  -3.074   4.750  1.00  0.00     0.159 HD
ATOM    117 WAT  UNL     1       9.409  -3.010   6.734  1.00  0.00     0.000 W 
ENDBRANCH 109 116
BRANCH 109 118
ATOM    118  H   UNL     1       9.731  -2.609   3.105  1.00  0.00     0.159 HD
ATOM    119 WAT  UNL     1      11.046  -1.653   1.940  1.00  0.00     0.000 W 
ENDBRANCH 109 118
ENDBRANCH 106 107
ENDBRANCH 105 106
ENDBRANCH 104 105
ENDBRANCH  70 104
ENDBRANCH   2  70
BRANCH   2 120
ATOM    120  H   UNL     1       2.862  -3.474   0.358  1.00  0.00     0.164 HD
ATOM    121 WAT  UNL     1       2.930  -5.448   0.043  1.00  0.00     0.000 W 
ENDBRANCH   2 120
TORSDOF 61
