REMARK SMILES CC(C)C[C@H](NC(=O)[C@H](Cc1ccccc1)NC(=O)[C@@H](N)CO)C(=O)N[C@@H](CCCCN)C(=O)N[C@@H](CC(N)=O)C(=O)N[C@@H](CC(N)=O)C(=O)O
REMARK SMILES IDX 24 1 25 2 26 3 5 5 6 6 7 7 8 8 9 10 17 11 18 12 19 13 20 15
REMARK SMILES IDX 21 16 22 19 23 20 10 22 11 23 12 24 16 25 13 26 15 27 14 28
REMARK SMILES IDX 4 29 2 30 1 31 3 32 27 33 33 34 35 35 34 36 36 38 41 39
REMARK SMILES IDX 43 40 42 41 44 43 49 44 50 45 51 46 45 48 46 49 47 50 48 51
REMARK SMILES IDX 37 54 38 55 39 56 40 57 28 60 29 61 30 62 31 63 32 64
REMARK H PARENT 26 4 6 9 17 14 21 17 21 18 23 21 35 37 43 42 51 47 47 52 47 53
REMARK H PARENT 39 58 39 59 32 65 32 66
ROOT
ATOM      1  C   LEU A   3      20.050  10.089  -6.477  1.00  0.00     0.243 C 
ATOM      2  O   LEU A   3      20.161   9.163  -5.624  1.00  0.00    -0.273 OA
ATOM      3  N   LYS A   4      20.566   9.925  -7.785  1.00  0.00    -0.343 N 
ATOM      4  H   UNL     1      20.402  10.666  -8.506  1.00  0.00     0.164 HD
ENDROOT
BRANCH   1   5
ATOM      5  CA  LEU A   3      19.338  11.357  -6.146  1.00  0.00     0.171 C 
BRANCH   5   6
ATOM      6  N   LEU A   3      18.082  11.022  -5.537  1.00  0.00    -0.343 N 
ATOM      7  C   PHE A   2      16.885  11.745  -5.775  1.00  0.00     0.243 C 
ATOM      8  O   PHE A   2      16.903  12.796  -6.474  1.00  0.00    -0.273 OA
ATOM      9  H   UNL     1      18.154  10.389  -4.716  1.00  0.00     0.164 HD
BRANCH   7  10
ATOM     10  CA  PHE A   2      15.652  11.312  -5.056  1.00  0.00     0.175 C 
BRANCH  10  11
ATOM     11  N   PHE A   2      14.455  11.738  -5.766  1.00  0.00    -0.343 N 
ATOM     12  C   SER A   1      13.917  13.048  -5.633  1.00  0.00     0.239 C 
ATOM     13  O   SER A   1      14.447  13.866  -4.833  1.00  0.00    -0.273 OA
ATOM     14  H   UNL     1      13.870  10.998  -6.212  1.00  0.00     0.164 HD
BRANCH  12  15
ATOM     15  CA  SER A   1      12.661  13.409  -6.390  1.00  0.00     0.167 C 
BRANCH  15  16
ATOM     16  N   SER A   1      12.454  14.859  -6.401  1.00  0.00    -0.318 NA
ATOM     17  H   UNL     1      13.316  15.336  -6.757  1.00  0.00     0.119 HD
ATOM     18  H   UNL     1      12.284  15.188  -5.423  1.00  0.00     0.119 HD
ENDBRANCH  15  16
BRANCH  15  19
ATOM     19  CB  SER A   1      12.693  12.886  -7.842  1.00  0.00     0.184 C 
BRANCH  19  20
ATOM     20  OG  SER A   1      11.438  13.058  -8.437  1.00  0.00    -0.394 OA
ATOM     21  H   UNL     1      11.539  12.785  -9.386  1.00  0.00     0.210 HD
ENDBRANCH  19  20
ENDBRANCH  15  19
ENDBRANCH  12  15
ENDBRANCH  10  11
BRANCH  10  22
ATOM     22  CB  PHE A   2      15.610   9.772  -4.880  1.00  0.00     0.070 C 
BRANCH  22  23
ATOM     23  CG  PHE A   2      14.436   9.291  -4.091  1.00  0.00    -0.045 A 
ATOM     24  CD1 PHE A   2      13.898  10.047  -3.033  1.00  0.00     0.004 A 
ATOM     25  CD2 PHE A   2      13.964   7.990  -4.310  1.00  0.00     0.004 A 
ATOM     26  CE1 PHE A   2      12.866   9.535  -2.258  1.00  0.00     0.000 A 
ATOM     27  CE2 PHE A   2      12.937   7.476  -3.520  1.00  0.00     0.000 A 
ATOM     28  CZ  PHE A   2      12.384   8.251  -2.500  1.00  0.00     0.000 A 
ENDBRANCH  22  23
ENDBRANCH  10  22
ENDBRANCH   7  10
ENDBRANCH   5   6
BRANCH   5  29
ATOM     29  CB  LEU A   3      20.162  12.254  -5.214  1.00  0.00     0.038 C 
BRANCH  29  30
ATOM     30  CG  LEU A   3      20.411  11.680  -3.789  1.00  0.00    -0.015 C 
ATOM     31  CD1 LEU A   3      21.813  12.063  -3.314  1.00  0.00     0.007 C 
ATOM     32  CD2 LEU A   3      19.365  12.173  -2.780  1.00  0.00     0.007 C 
ENDBRANCH  29  30
ENDBRANCH   5  29
ENDBRANCH   1   5
BRANCH   3  33
ATOM     33  CA  LYS A   4      21.350   8.764  -8.149  1.00  0.00     0.171 C 
BRANCH  33  34
ATOM     34  C   LYS A   4      22.715   9.220  -8.524  1.00  0.00     0.243 C 
ATOM     35  N   ASN A   5      23.823   8.736  -7.777  1.00  0.00    -0.342 N 
ATOM     36  O   LYS A   4      22.881  10.033  -9.473  1.00  0.00    -0.273 OA
ATOM     37  H   UNL     1      23.668   8.044  -7.008  1.00  0.00     0.164 HD
BRANCH  35  38
ATOM     38  CA  ASN A   5      25.185   9.136  -8.070  1.00  0.00     0.180 C 
BRANCH  38  39
ATOM     39  C   ASN A   5      25.900   7.977  -8.682  1.00  0.00     0.243 C 
ATOM     40  N   ASN A   6      25.912   7.868 -10.099  1.00  0.00    -0.340 N 
ATOM     41  O   ASN A   5      26.445   7.095  -7.964  1.00  0.00    -0.273 OA
ATOM     42  H   UNL     1      25.487   8.650 -10.649  1.00  0.00     0.164 HD
BRANCH  40  43
ATOM     43  CA  ASN A   6      26.540   6.753 -10.800  1.00  0.00     0.201 C 
BRANCH  43  44
ATOM     44  C   ASN A   6      27.991   6.644 -10.413  1.00  0.00     0.326 C 
ATOM     45  O   ASN A   6      28.794   7.578 -10.677  1.00  0.00    -0.250 OA
BRANCH  44  46
ATOM     46  OXT ASN A   6      28.448   5.501  -9.762  1.00  0.00    -0.480 OA
ATOM     47  H   UNL     1      29.421   5.411  -9.494  1.00  0.00     0.296 HD
ENDBRANCH  44  46
ENDBRANCH  43  44
BRANCH  43  48
ATOM     48  CB  ASN A   6      26.424   6.948 -12.321  1.00  0.00     0.136 C 
BRANCH  48  49
ATOM     49  CG  ASN A   6      25.010   7.181 -12.772  1.00  0.00     0.220 C 
ATOM     50  ND2 ASN A   6      24.754   8.090 -13.833  1.00  0.00    -0.370 N 
ATOM     51  OD1 ASN A   6      24.053   6.558 -12.243  1.00  0.00    -0.275 OA
ATOM     52  H   UNL     1      23.776   8.257 -14.158  1.00  0.00     0.159 HD
ATOM     53  H   UNL     1      25.534   8.600 -14.305  1.00  0.00     0.159 HD
ENDBRANCH  48  49
ENDBRANCH  43  48
ENDBRANCH  40  43
ENDBRANCH  38  39
BRANCH  38  54
ATOM     54  CB  ASN A   5      25.867   9.637  -6.796  1.00  0.00     0.134 C 
BRANCH  54  55
ATOM     55  CG  ASN A   5      25.182  10.847  -6.215  1.00  0.00     0.220 C 
ATOM     56  ND2 ASN A   5      25.292  11.120  -4.818  1.00  0.00    -0.370 N 
ATOM     57  OD1 ASN A   5      24.585  11.671  -6.960  1.00  0.00    -0.275 OA
ATOM     58  H   UNL     1      25.792  10.459  -4.183  1.00  0.00     0.159 HD
ATOM     59  H   UNL     1      24.909  12.007  -4.423  1.00  0.00     0.159 HD
ENDBRANCH  54  55
ENDBRANCH  38  54
ENDBRANCH  35  38
ENDBRANCH  33  34
BRANCH  33  60
ATOM     60  CB  LYS A   4      20.659   8.003  -9.283  1.00  0.00     0.035 C 
BRANCH  60  61
ATOM     61  CG  LYS A   4      21.447   6.773  -9.759  1.00  0.00     0.004 C 
BRANCH  61  62
ATOM     62  CD  LYS A   4      21.772   5.746  -8.659  1.00  0.00     0.015 C 
BRANCH  62  63
ATOM     63  CE  LYS A   4      20.530   5.050  -8.077  1.00  0.00     0.077 C 
BRANCH  63  64
ATOM     64  NZ  LYS A   4      19.878   5.885  -7.073  1.00  0.00    -0.330 NA
ATOM     65  H   UNL     1      20.495   5.924  -6.229  1.00  0.00     0.118 HD
ATOM     66  H   UNL     1      19.001   5.400  -6.776  1.00  0.00     0.118 HD
ENDBRANCH  63  64
ENDBRANCH  62  63
ENDBRANCH  61  62
ENDBRANCH  60  61
ENDBRANCH  33  60
ENDBRANCH   3  33
TORSDOF 28
