REMARK SMILES CC(C)C[C@H](NC(=O)[C@H](Cc1c[nH]cn1)NC(=O)[C@H](Cc1ccccc1)NC(=O)[C@@H](N)CO)C(=O)N[C@@H](CCCNC(=N)N)C(=O)N[C@@H](CCC(N)=O)C(=O)O
REMARK SMILES IDX 7 1 8 2 6 3 9 5 16 6 17 7 18 8 19 10 27 11 28 12 29 13 30 15
REMARK SMILES IDX 31 16 32 19 33 20 20 22 21 23 22 24 26 25 23 26 25 27 24 28
REMARK SMILES IDX 10 29 11 30 15 31 12 32 14 33 13 34 5 36 34 37 36 38 35 39
REMARK SMILES IDX 37 41 45 42 47 43 46 44 48 46 54 47 55 48 56 49 49 51 50 52
REMARK SMILES IDX 51 53 52 54 53 55 38 58 39 59 40 60 41 61 42 62 44 63 43 67
REMARK SMILES IDX 4 69 2 70 1 71 3 72
REMARK H PARENT 6 4 16 9 27 14 31 17 31 18 33 21 13 35 36 40 47 45 56 50 52 56
REMARK H PARENT 52 57 41 64 44 65 44 66 43 68
ROOT
ATOM      1  C   HIS A   3      20.051  10.095  -6.460  1.00  0.00     0.243 C 
ATOM      2  O   HIS A   3      20.169   9.182  -5.596  1.00  0.00    -0.273 OA
ATOM      3  N   LEU A   4      20.563   9.921  -7.772  1.00  0.00    -0.342 N 
ATOM      4  H   UNL     1      20.396  10.659  -8.494  1.00  0.00     0.164 HD
ENDROOT
BRANCH   1   5
ATOM      5  CA  HIS A   3      19.347  11.367  -6.131  1.00  0.00     0.177 C 
BRANCH   5   6
ATOM      6  N   HIS A   3      18.090  11.044  -5.508  1.00  0.00    -0.342 N 
ATOM      7  C   PHE A   2      16.888  11.749  -5.774  1.00  0.00     0.243 C 
ATOM      8  O   PHE A   2      16.903  12.793  -6.483  1.00  0.00    -0.273 OA
ATOM      9  H   UNL     1      18.165  10.483  -4.634  1.00  0.00     0.164 HD
BRANCH   7  10
ATOM     10  CA  PHE A   2      15.653  11.313  -5.059  1.00  0.00     0.175 C 
BRANCH  10  11
ATOM     11  N   PHE A   2      14.456  11.740  -5.769  1.00  0.00    -0.343 N 
ATOM     12  C   SER A   1      13.917  13.049  -5.633  1.00  0.00     0.239 C 
ATOM     13  O   SER A   1      14.448  13.866  -4.831  1.00  0.00    -0.273 OA
ATOM     14  H   UNL     1      13.872  11.001  -6.218  1.00  0.00     0.164 HD
BRANCH  12  15
ATOM     15  CA  SER A   1      12.661  13.412  -6.387  1.00  0.00     0.167 C 
BRANCH  15  16
ATOM     16  N   SER A   1      12.457  14.862  -6.397  1.00  0.00    -0.318 NA
ATOM     17  H   UNL     1      13.318  15.337  -6.758  1.00  0.00     0.119 HD
ATOM     18  H   UNL     1      12.292  15.192  -5.418  1.00  0.00     0.119 HD
ENDBRANCH  15  16
BRANCH  15  19
ATOM     19  CB  SER A   1      12.690  12.888  -7.841  1.00  0.00     0.184 C 
BRANCH  19  20
ATOM     20  OG  SER A   1      11.437  13.050  -8.444  1.00  0.00    -0.394 OA
ATOM     21  H   UNL     1      11.385  13.993  -8.750  1.00  0.00     0.210 HD
ENDBRANCH  19  20
ENDBRANCH  15  19
ENDBRANCH  12  15
ENDBRANCH  10  11
BRANCH  10  22
ATOM     22  CB  PHE A   2      15.613   9.773  -4.889  1.00  0.00     0.070 C 
BRANCH  22  23
ATOM     23  CG  PHE A   2      14.443   9.290  -4.091  1.00  0.00    -0.045 A 
ATOM     24  CD1 PHE A   2      13.903  10.047  -3.033  1.00  0.00     0.004 A 
ATOM     25  CD2 PHE A   2      13.968   7.990  -4.310  1.00  0.00     0.004 A 
ATOM     26  CE1 PHE A   2      12.869   9.536  -2.260  1.00  0.00     0.000 A 
ATOM     27  CE2 PHE A   2      12.939   7.477  -3.521  1.00  0.00     0.000 A 
ATOM     28  CZ  PHE A   2      12.386   8.253  -2.502  1.00  0.00     0.000 A 
ENDBRANCH  22  23
ENDBRANCH  10  22
ENDBRANCH   7  10
ENDBRANCH   5   6
BRANCH   5  29
ATOM     29  CB  HIS A   3      20.180  12.263  -5.202  1.00  0.00     0.093 C 
BRANCH  29  30
ATOM     30  CG  HIS A   3      20.417  11.676  -3.834  1.00  0.00     0.061 A 
ATOM     31  ND1 HIS A   3      19.571  11.819  -2.794  1.00  0.00    -0.242 NA
ATOM     32  CD2 HIS A   3      21.499  10.912  -3.456  1.00  0.00     0.107 A 
ATOM     33  CE1 HIS A   3      20.164  11.129  -1.797  1.00  0.00     0.196 A 
ATOM     34  NE2 HIS A   3      21.331  10.570  -2.171  1.00  0.00    -0.351 N 
ATOM     35  H   UNL     1      21.966   9.987  -1.583  1.00  0.00     0.167 HD
ENDBRANCH  29  30
ENDBRANCH   5  29
ENDBRANCH   1   5
BRANCH   3  36
ATOM     36  CA  LEU A   4      21.348   8.759  -8.139  1.00  0.00     0.171 C 
BRANCH  36  37
ATOM     37  C   LEU A   4      22.713   9.215  -8.519  1.00  0.00     0.243 C 
ATOM     38  N   ARG A   5      23.821   8.720  -7.782  1.00  0.00    -0.343 N 
ATOM     39  O   LEU A   4      22.877  10.031  -9.467  1.00  0.00    -0.273 OA
ATOM     40  H   UNL     1      23.665   8.031  -7.012  1.00  0.00     0.164 HD
BRANCH  38  41
ATOM     41  CA  ARG A   5      25.185   9.121  -8.069  1.00  0.00     0.171 C 
BRANCH  41  42
ATOM     42  C   ARG A   5      25.899   7.968  -8.684  1.00  0.00     0.243 C 
ATOM     43  N   GLN A   6      25.924   7.880 -10.101  1.00  0.00    -0.341 N 
ATOM     44  O   ARG A   5      26.441   7.081  -7.971  1.00  0.00    -0.273 OA
ATOM     45  H   UNL     1      25.599   8.716 -10.635  1.00  0.00     0.164 HD
BRANCH  43  46
ATOM     46  CA  GLN A   6      26.536   6.767 -10.815  1.00  0.00     0.192 C 
BRANCH  46  47
ATOM     47  C   GLN A   6      27.986   6.642 -10.427  1.00  0.00     0.326 C 
ATOM     48  O   GLN A   6      28.795   7.576 -10.679  1.00  0.00    -0.250 OA
BRANCH  47  49
ATOM     49  OXT GLN A   6      28.436   5.489  -9.792  1.00  0.00    -0.480 OA
ATOM     50  H   UNL     1      29.408   5.389  -9.523  1.00  0.00     0.296 HD
ENDBRANCH  47  49
ENDBRANCH  46  47
BRANCH  46  51
ATOM     51  CB  GLN A   6      26.420   6.986 -12.334  1.00  0.00     0.047 C 
BRANCH  51  52
ATOM     52  CG  GLN A   6      24.963   7.131 -12.801  1.00  0.00     0.102 C 
BRANCH  52  53
ATOM     53  CD  GLN A   6      24.894   7.146 -14.298  1.00  0.00     0.217 C 
ATOM     54  NE2 GLN A   6      25.139   8.353 -15.019  1.00  0.00    -0.370 N 
ATOM     55  OE1 GLN A   6      24.656   6.080 -14.926  1.00  0.00    -0.275 OA
ATOM     56  H   UNL     1      25.105   8.360 -16.063  1.00  0.00     0.159 HD
ATOM     57  H   UNL     1      25.360   9.240 -14.514  1.00  0.00     0.159 HD
ENDBRANCH  52  53
ENDBRANCH  51  52
ENDBRANCH  46  51
ENDBRANCH  43  46
ENDBRANCH  41  42
BRANCH  41  58
ATOM     58  CB  ARG A   5      25.862   9.604  -6.793  1.00  0.00     0.037 C 
BRANCH  58  59
ATOM     59  CG  ARG A   5      25.167  10.861  -6.270  1.00  0.00     0.024 C 
BRANCH  59  60
ATOM     60  CD  ARG A   5      25.840  11.392  -5.014  1.00  0.00     0.116 C 
BRANCH  60  61
ATOM     61  NE  ARG A   5      25.379  10.684  -3.823  1.00  0.00    -0.357 N 
ATOM     62  CZ  ARG A   5      25.468  11.279  -2.527  1.00  0.00     0.185 C 
ATOM     63  NH2 ARG A   5      26.103  12.543  -2.349  1.00  0.00    -0.370 N 
ATOM     64  H   UNL     1      24.907   9.756  -3.921  1.00  0.00     0.163 HD
ATOM     65  H   UNL     1      26.689  12.985  -3.090  1.00  0.00     0.159 HD
ATOM     66  H   UNL     1      26.080  13.008  -1.415  1.00  0.00     0.159 HD
BRANCH  62  67
ATOM     67  NH1 ARG A   5      24.962  10.677  -1.499  1.00  0.00    -0.270 NA
ATOM     68  H   UNL     1      24.487   9.750  -1.582  1.00  0.00     0.191 HD
ENDBRANCH  62  67
ENDBRANCH  60  61
ENDBRANCH  59  60
ENDBRANCH  58  59
ENDBRANCH  41  58
ENDBRANCH  38  41
ENDBRANCH  36  37
BRANCH  36  69
ATOM     69  CB  LEU A   4      20.657   7.999  -9.273  1.00  0.00     0.038 C 
BRANCH  69  70
ATOM     70  CG  LEU A   4      21.450   6.771  -9.771  1.00  0.00    -0.015 C 
ATOM     71  CD1 LEU A   4      21.764   5.779  -8.641  1.00  0.00     0.007 C 
ATOM     72  CD2 LEU A   4      20.661   6.067 -10.878  1.00  0.00     0.007 C 
ENDBRANCH  69  70
ENDBRANCH  36  69
ENDBRANCH   3  36
TORSDOF 29
