REMARK SMILES CC(C)C[C@H](NC(=O)CNC(=O)[C@H](Cc1ccccc1)NC(=O)[C@@H](N)CO)C(=O)N[C@@H](CCCNC(=N)N)C(=O)NCC(=O)O
REMARK SMILES IDX 7 1 8 2 6 3 9 5 10 6 11 7 12 8 13 10 21 11 22 12 23 13 24 15
REMARK SMILES IDX 25 16 26 19 27 20 14 22 15 23 16 24 20 25 17 26 19 27 18 28
REMARK SMILES IDX 5 29 28 30 30 31 29 32 31 34 39 35 41 36 40 37 42 39 43 40
REMARK SMILES IDX 44 41 45 42 32 44 33 45 34 46 35 47 36 48 38 49 37 53 4 55
REMARK SMILES IDX 2 56 1 57 3 58
REMARK H PARENT 6 4 10 9 21 14 25 17 25 18 27 21 30 33 41 38 45 43 35 50 38 51
REMARK H PARENT 38 52 37 54
ROOT
ATOM      1  C   GLY A   3      -1.417  -0.676   2.451  1.00  0.00     0.240 C 
ATOM      2  O   GLY A   3      -1.705  -1.894   2.304  1.00  0.00    -0.273 OA
ATOM      3  N   LEU A   4      -0.282  -0.115   1.781  1.00  0.00    -0.343 N 
ATOM      4  H   UNL     1      -0.071   0.895   1.961  1.00  0.00     0.164 HD
ENDROOT
BRANCH   1   5
ATOM      5  CA  GLY A   3      -2.268   0.186   3.330  1.00  0.00     0.216 C 
BRANCH   5   6
ATOM      6  N   GLY A   3      -2.840   1.279   2.551  1.00  0.00    -0.345 N 
ATOM      7  C   PHE A   2      -3.859   1.064   1.564  1.00  0.00     0.243 C 
ATOM      8  O   PHE A   2      -4.348  -0.088   1.399  1.00  0.00    -0.273 OA
ATOM      9  H   UNL     1      -2.488   2.248   2.720  1.00  0.00     0.164 HD
BRANCH   7  10
ATOM     10  CA  PHE A   2      -4.373   2.227   0.755  1.00  0.00     0.175 C 
BRANCH  10  11
ATOM     11  N   PHE A   2      -5.037   1.754  -0.466  1.00  0.00    -0.343 N 
ATOM     12  C   SER A   1      -4.297   1.356  -1.632  1.00  0.00     0.239 C 
ATOM     13  O   SER A   1      -3.050   1.533  -1.681  1.00  0.00    -0.273 OA
ATOM     14  H   UNL     1      -6.059   1.547  -0.436  1.00  0.00     0.164 HD
BRANCH  12  15
ATOM     15  CA  SER A   1      -4.994   0.705  -2.800  1.00  0.00     0.167 C 
BRANCH  15  16
ATOM     16  N   SER A   1      -5.593  -0.566  -2.378  1.00  0.00    -0.318 NA
ATOM     17  H   UNL     1      -5.963  -1.063  -3.220  1.00  0.00     0.119 HD
ATOM     18  H   UNL     1      -6.404  -0.382  -1.744  1.00  0.00     0.119 HD
ENDBRANCH  15  16
BRANCH  15  19
ATOM     19  CB  SER A   1      -6.046   1.653  -3.411  1.00  0.00     0.184 C 
BRANCH  19  20
ATOM     20  OG  SER A   1      -6.617   1.084  -4.560  1.00  0.00    -0.394 OA
ATOM     21  H   UNL     1      -5.941   1.163  -5.283  1.00  0.00     0.210 HD
ENDBRANCH  19  20
ENDBRANCH  15  19
ENDBRANCH  12  15
ENDBRANCH  10  11
BRANCH  10  22
ATOM     22  CB  PHE A   2      -5.302   3.137   1.589  1.00  0.00     0.070 C 
BRANCH  22  23
ATOM     23  CG  PHE A   2      -6.552   2.447   2.086  1.00  0.00    -0.045 A 
ATOM     24  CD1 PHE A   2      -7.767   2.589   1.393  1.00  0.00     0.004 A 
ATOM     25  CD2 PHE A   2      -6.515   1.652   3.245  1.00  0.00     0.004 A 
ATOM     26  CE1 PHE A   2      -8.919   1.942   1.847  1.00  0.00     0.000 A 
ATOM     27  CE2 PHE A   2      -7.668   1.001   3.692  1.00  0.00     0.000 A 
ATOM     28  CZ  PHE A   2      -8.870   1.147   2.994  1.00  0.00     0.000 A 
ENDBRANCH  22  23
ENDBRANCH  10  22
ENDBRANCH   7  10
ENDBRANCH   5   6
ENDBRANCH   1   5
BRANCH   3  29
ATOM     29  CA  LEU A   4       0.335  -0.764   0.620  1.00  0.00     0.171 C 
BRANCH  29  30
ATOM     30  C   LEU A   4       1.781  -0.345   0.506  1.00  0.00     0.243 C 
ATOM     31  N   ARG A   5       2.803  -1.330   0.288  1.00  0.00    -0.343 N 
ATOM     32  O   LEU A   4       2.085   0.879   0.566  1.00  0.00    -0.273 OA
ATOM     33  H   UNL     1       2.517  -2.328   0.161  1.00  0.00     0.164 HD
BRANCH  31  34
ATOM     34  CA  ARG A   5       4.226  -0.978   0.265  1.00  0.00     0.171 C 
BRANCH  34  35
ATOM     35  C   ARG A   5       4.539  -0.213  -0.996  1.00  0.00     0.243 C 
ATOM     36  N   GLY A   6       5.174   1.071  -0.921  1.00  0.00    -0.343 N 
ATOM     37  O   ARG A   5       4.248  -0.713  -2.117  1.00  0.00    -0.273 OA
ATOM     38  H   UNL     1       5.411   1.469   0.015  1.00  0.00     0.164 HD
BRANCH  36  39
ATOM     39  CA  GLY A   6       5.473   1.870  -2.109  1.00  0.00     0.238 C 
BRANCH  39  40
ATOM     40  C   GLY A   6       6.701   1.379  -2.814  1.00  0.00     0.322 C 
ATOM     41  O   GLY A   6       7.322   0.361  -2.403  1.00  0.00    -0.250 OA
BRANCH  40  42
ATOM     42  OXT GLY A   6       7.161   2.063  -3.934  1.00  0.00    -0.480 OA
ATOM     43  H   UNL     1       7.987   1.753  -4.431  1.00  0.00     0.296 HD
ENDBRANCH  40  42
ENDBRANCH  39  40
ENDBRANCH  36  39
ENDBRANCH  34  35
BRANCH  34  44
ATOM     44  CB  ARG A   5       5.092  -2.249   0.367  1.00  0.00     0.037 C 
BRANCH  44  45
ATOM     45  CG  ARG A   5       6.578  -1.925   0.577  1.00  0.00     0.024 C 
BRANCH  45  46
ATOM     46  CD  ARG A   5       7.411  -3.207   0.687  1.00  0.00     0.116 C 
BRANCH  46  47
ATOM     47  NE  ARG A   5       8.815  -2.887   0.944  1.00  0.00    -0.357 N 
ATOM     48  CZ  ARG A   5       9.333  -2.435   2.210  1.00  0.00     0.185 C 
ATOM     49  NH2 ARG A   5      10.704  -2.051   2.305  1.00  0.00    -0.370 N 
ATOM     50  H   UNL     1       9.489  -3.010   0.155  1.00  0.00     0.163 HD
ATOM     51  H   UNL     1      11.324  -2.082   1.466  1.00  0.00     0.159 HD
ATOM     52  H   UNL     1      11.104  -1.730   3.215  1.00  0.00     0.159 HD
BRANCH  48  53
ATOM     53  NH1 ARG A   5       8.591  -2.379   3.273  1.00  0.00    -0.270 NA
ATOM     54  H   UNL     1       7.585  -2.650   3.295  1.00  0.00     0.191 HD
ENDBRANCH  48  53
ENDBRANCH  46  47
ENDBRANCH  45  46
ENDBRANCH  44  45
ENDBRANCH  34  44
ENDBRANCH  31  34
ENDBRANCH  29  30
BRANCH  29  55
ATOM     55  CB  LEU A   4      -0.457  -0.394  -0.649  1.00  0.00     0.038 C 
BRANCH  55  56
ATOM     56  CG  LEU A   4       0.038  -1.090  -1.940  1.00  0.00    -0.015 C 
ATOM     57  CD1 LEU A   4      -0.215  -2.605  -1.907  1.00  0.00     0.007 C 
ATOM     58  CD2 LEU A   4      -0.657  -0.476  -3.161  1.00  0.00     0.007 C 
ENDBRANCH  55  56
ENDBRANCH  29  55
ENDBRANCH   3  29
TORSDOF 24
