REMARK SMILES CC(C)C[C@H](NC(=O)[C@H](Cc1ccccc1)NC(=O)[C@@H](N)CO)C(=O)N[C@@H](Cc1c[nH]cn1)C(=O)N[C@@H](CCCNC(=N)N)C(=O)N[C@@H](C)C(=O)O
REMARK SMILES IDX 24 1 25 2 26 3 5 5 6 6 7 7 8 8 9 10 17 11 18 12 19 13 20 15
REMARK SMILES IDX 21 16 22 19 23 20 10 22 11 23 12 24 16 25 13 26 15 27 14 28
REMARK SMILES IDX 4 29 2 30 1 31 3 32 27 33 34 34 36 35 35 36 37 38 45 39
REMARK SMILES IDX 47 40 46 41 48 43 49 44 50 45 51 46 52 47 38 49 39 50 40 51
REMARK SMILES IDX 41 52 42 53 44 54 43 58 28 60 29 61 33 62 30 63 32 64 31 65
REMARK H PARENT 26 4 6 9 17 14 21 17 21 18 23 21 36 37 47 42 52 48 41 55 44 56
REMARK H PARENT 44 57 43 59 31 66
ROOT
ATOM      1  C   LEU A   3      20.055  10.080  -6.478  1.00  0.00     0.243 C 
ATOM      2  O   LEU A   3      20.168   9.157  -5.624  1.00  0.00    -0.273 OA
ATOM      3  N   HIS A   4      20.562   9.907  -7.789  1.00  0.00    -0.342 N 
ATOM      4  H   UNL     1      20.397  10.648  -8.508  1.00  0.00     0.164 HD
ENDROOT
BRANCH   1   5
ATOM      5  CA  LEU A   3      19.342  11.351  -6.148  1.00  0.00     0.171 C 
BRANCH   5   6
ATOM      6  N   LEU A   3      18.084  11.019  -5.539  1.00  0.00    -0.343 N 
ATOM      7  C   PHE A   2      16.888  11.744  -5.776  1.00  0.00     0.243 C 
ATOM      8  O   PHE A   2      16.906  12.795  -6.474  1.00  0.00    -0.273 OA
ATOM      9  H   UNL     1      18.156  10.384  -4.719  1.00  0.00     0.164 HD
BRANCH   7  10
ATOM     10  CA  PHE A   2      15.653  11.312  -5.056  1.00  0.00     0.175 C 
BRANCH  10  11
ATOM     11  N   PHE A   2      14.457  11.738  -5.767  1.00  0.00    -0.343 N 
ATOM     12  C   SER A   1      13.917  13.048  -5.633  1.00  0.00     0.239 C 
ATOM     13  O   SER A   1      14.447  13.866  -4.833  1.00  0.00    -0.273 OA
ATOM     14  H   UNL     1      13.872  10.998  -6.213  1.00  0.00     0.164 HD
BRANCH  12  15
ATOM     15  CA  SER A   1      12.662  13.409  -6.390  1.00  0.00     0.167 C 
BRANCH  15  16
ATOM     16  N   SER A   1      12.454  14.859  -6.401  1.00  0.00    -0.318 NA
ATOM     17  H   UNL     1      13.316  15.336  -6.757  1.00  0.00     0.119 HD
ATOM     18  H   UNL     1      12.284  15.188  -5.423  1.00  0.00     0.119 HD
ENDBRANCH  15  16
BRANCH  15  19
ATOM     19  CB  SER A   1      12.693  12.886  -7.842  1.00  0.00     0.184 C 
BRANCH  19  20
ATOM     20  OG  SER A   1      11.438  13.058  -8.436  1.00  0.00    -0.394 OA
ATOM     21  H   UNL     1      11.539  12.786  -9.386  1.00  0.00     0.210 HD
ENDBRANCH  19  20
ENDBRANCH  15  19
ENDBRANCH  12  15
ENDBRANCH  10  11
BRANCH  10  22
ATOM     22  CB  PHE A   2      15.611   9.773  -4.879  1.00  0.00     0.070 C 
BRANCH  22  23
ATOM     23  CG  PHE A   2      14.436   9.292  -4.091  1.00  0.00    -0.045 A 
ATOM     24  CD1 PHE A   2      13.898  10.048  -3.033  1.00  0.00     0.004 A 
ATOM     25  CD2 PHE A   2      13.964   7.991  -4.310  1.00  0.00     0.004 A 
ATOM     26  CE1 PHE A   2      12.866   9.535  -2.258  1.00  0.00     0.000 A 
ATOM     27  CE2 PHE A   2      12.937   7.477  -3.520  1.00  0.00     0.000 A 
ATOM     28  CZ  PHE A   2      12.384   8.252  -2.500  1.00  0.00     0.000 A 
ENDBRANCH  22  23
ENDBRANCH  10  22
ENDBRANCH   7  10
ENDBRANCH   5   6
BRANCH   5  29
ATOM     29  CB  LEU A   3      20.165  12.251  -5.217  1.00  0.00     0.038 C 
BRANCH  29  30
ATOM     30  CG  LEU A   3      20.417  11.679  -3.791  1.00  0.00    -0.015 C 
ATOM     31  CD1 LEU A   3      21.819  12.066  -3.316  1.00  0.00     0.007 C 
ATOM     32  CD2 LEU A   3      19.369  12.169  -2.781  1.00  0.00     0.007 C 
ENDBRANCH  29  30
ENDBRANCH   5  29
ENDBRANCH   1   5
BRANCH   3  33
ATOM     33  CA  HIS A   4      21.344   8.743  -8.162  1.00  0.00     0.177 C 
BRANCH  33  34
ATOM     34  C   HIS A   4      22.712   9.206  -8.530  1.00  0.00     0.243 C 
ATOM     35  N   ARG A   5      23.819   8.708  -7.793  1.00  0.00    -0.343 N 
ATOM     36  O   HIS A   4      22.878  10.034  -9.467  1.00  0.00    -0.273 OA
ATOM     37  H   UNL     1      23.664   7.982  -7.057  1.00  0.00     0.164 HD
BRANCH  35  38
ATOM     38  CA  ARG A   5      25.183   9.115  -8.078  1.00  0.00     0.171 C 
BRANCH  38  39
ATOM     39  C   ARG A   5      25.898   7.962  -8.693  1.00  0.00     0.243 C 
ATOM     40  N   ALA A   6      25.885   7.839 -10.110  1.00  0.00    -0.341 N 
ATOM     41  O   ARG A   5      26.458   7.090  -7.975  1.00  0.00    -0.273 OA
ATOM     42  H   UNL     1      25.365   8.560 -10.662  1.00  0.00     0.164 HD
BRANCH  40  43
ATOM     43  CA  ALA A   6      26.544   6.745 -10.813  1.00  0.00     0.189 C 
ATOM     44  CB  ALA A   6      26.419   6.954 -12.323  1.00  0.00     0.043 C 
BRANCH  43  45
ATOM     45  C   ALA A   6      27.994   6.651 -10.418  1.00  0.00     0.325 C 
ATOM     46  O   ALA A   6      28.790   7.590 -10.686  1.00  0.00    -0.250 OA
BRANCH  45  47
ATOM     47  OXT ALA A   6      28.457   5.520  -9.754  1.00  0.00    -0.480 OA
ATOM     48  H   UNL     1      29.429   5.440  -9.479  1.00  0.00     0.296 HD
ENDBRANCH  45  47
ENDBRANCH  43  45
ENDBRANCH  40  43
ENDBRANCH  38  39
BRANCH  38  49
ATOM     49  CB  ARG A   5      25.858   9.599  -6.798  1.00  0.00     0.037 C 
BRANCH  49  50
ATOM     50  CG  ARG A   5      25.163  10.855  -6.272  1.00  0.00     0.024 C 
BRANCH  50  51
ATOM     51  CD  ARG A   5      25.838  11.388  -5.016  1.00  0.00     0.116 C 
BRANCH  51  52
ATOM     52  NE  ARG A   5      25.377  10.685  -3.821  1.00  0.00    -0.357 N 
ATOM     53  CZ  ARG A   5      25.469  11.281  -2.527  1.00  0.00     0.185 C 
ATOM     54  NH2 ARG A   5      26.107  12.546  -2.353  1.00  0.00    -0.370 N 
ATOM     55  H   UNL     1      24.894   9.762  -3.912  1.00  0.00     0.163 HD
ATOM     56  H   UNL     1      26.080  13.024  -1.425  1.00  0.00     0.159 HD
ATOM     57  H   UNL     1      26.696  12.982  -3.095  1.00  0.00     0.159 HD
BRANCH  53  58
ATOM     58  NH1 ARG A   5      24.955  10.672  -1.507  1.00  0.00    -0.270 NA
ATOM     59  H   UNL     1      24.996  11.077  -0.546  1.00  0.00     0.191 HD
ENDBRANCH  53  58
ENDBRANCH  51  52
ENDBRANCH  50  51
ENDBRANCH  49  50
ENDBRANCH  38  49
ENDBRANCH  35  38
ENDBRANCH  33  34
BRANCH  33  60
ATOM     60  CB  HIS A   4      20.659   8.000  -9.310  1.00  0.00     0.093 C 
BRANCH  60  61
ATOM     61  CG  HIS A   4      21.447   6.797  -9.744  1.00  0.00     0.061 A 
ATOM     62  ND1 HIS A   4      22.313   6.798 -10.778  1.00  0.00    -0.242 NA
ATOM     63  CD2 HIS A   4      21.492   5.583  -9.096  1.00  0.00     0.107 A 
ATOM     64  CE1 HIS A   4      22.855   5.562 -10.747  1.00  0.00     0.196 A 
ATOM     65  NE2 HIS A   4      22.378   4.807  -9.739  1.00  0.00    -0.351 N 
ATOM     66  H   UNL     1      22.650   3.828  -9.500  1.00  0.00     0.167 HD
ENDBRANCH  60  61
ENDBRANCH  33  60
ENDBRANCH   3  33
TORSDOF 26
