REMARK SMILES CC[C@H](C)[C@H](NC(=O)[C@H](CC(C)C)NC(=O)[C@H](C)NC(=O)[C@@H](N)CO)C(=O)N[C@@H](CCCNC(=N)N)C(=O)N[C@@H](CC(N)=O)C(=O)O
REMARK SMILES IDX 7 1 8 2 6 3 9 5 14 6 15 7 16 8 17 10 18 11 19 12 20 13 21 14
REMARK SMILES IDX 22 16 23 17 24 20 25 21 10 23 11 24 12 25 13 26 5 27 26 28
REMARK SMILES IDX 28 29 27 30 29 32 37 33 39 34 38 35 40 37 45 38 46 39 47 40
REMARK SMILES IDX 41 42 42 43 43 44 44 45 30 48 31 49 32 50 33 51 34 52 36 53
REMARK SMILES IDX 35 57 3 59 4 60 2 61 1 62
REMARK H PARENT 6 4 14 9 19 15 23 18 23 19 25 22 28 31 39 36 47 41 43 46 43 47
REMARK H PARENT 33 54 36 55 36 56 35 58
ROOT
ATOM      1  C   LEU A   3       1.593  -1.965   0.579  1.00  0.00     0.243 C 
ATOM      2  O   LEU A   3       1.860  -0.869   0.012  1.00  0.00    -0.273 OA
ATOM      3  N   ILE A   4       0.578  -2.826   0.039  1.00  0.00    -0.342 N 
ATOM      4  H   UNL     1       0.296  -3.667   0.594  1.00  0.00     0.164 HD
ENDROOT
BRANCH   1   5
ATOM      5  CA  LEU A   3       2.293  -2.356   1.858  1.00  0.00     0.171 C 
BRANCH   5   6
ATOM      6  N   LEU A   3       3.687  -1.884   1.872  1.00  0.00    -0.343 N 
ATOM      7  C   ALA A   2       4.107  -0.509   1.930  1.00  0.00     0.242 C 
ATOM      8  O   ALA A   2       3.261   0.420   2.035  1.00  0.00    -0.273 OA
ATOM      9  H   UNL     1       4.433  -2.615   1.819  1.00  0.00     0.164 HD
BRANCH   7  10
ATOM     10  CA  ALA A   2       5.575  -0.177   1.922  1.00  0.00     0.168 C 
ATOM     11  CB  ALA A   2       6.117  -0.158   3.353  1.00  0.00     0.041 C 
BRANCH  10  12
ATOM     12  N   ALA A   2       5.800   1.119   1.275  1.00  0.00    -0.343 N 
ATOM     13  C   SER A   1       5.860   1.256  -0.154  1.00  0.00     0.239 C 
ATOM     14  O   SER A   1       5.716   0.243  -0.891  1.00  0.00    -0.273 OA
ATOM     15  H   UNL     1       5.826   1.979   1.867  1.00  0.00     0.164 HD
BRANCH  13  16
ATOM     16  CA  SER A   1       6.064   2.609  -0.797  1.00  0.00     0.167 C 
BRANCH  16  17
ATOM     17  N   SER A   1       4.878   3.449  -0.625  1.00  0.00    -0.318 NA
ATOM     18  H   UNL     1       4.062   2.971  -1.073  1.00  0.00     0.119 HD
ATOM     19  H   UNL     1       4.662   3.551   0.393  1.00  0.00     0.119 HD
ENDBRANCH  16  17
BRANCH  16  20
ATOM     20  CB  SER A   1       7.304   3.332  -0.246  1.00  0.00     0.184 C 
BRANCH  20  21
ATOM     21  OG  SER A   1       8.461   2.572  -0.466  1.00  0.00    -0.394 OA
ATOM     22  H   UNL     1       8.539   1.939   0.295  1.00  0.00     0.210 HD
ENDBRANCH  20  21
ENDBRANCH  16  20
ENDBRANCH  13  16
ENDBRANCH  10  12
ENDBRANCH   7  10
ENDBRANCH   5   6
BRANCH   5  23
ATOM     23  CB  LEU A   3       1.482  -1.897   3.097  1.00  0.00     0.038 C 
BRANCH  23  24
ATOM     24  CG  LEU A   3       1.861  -2.565   4.444  1.00  0.00    -0.015 C 
ATOM     25  CD1 LEU A   3       3.281  -2.225   4.909  1.00  0.00     0.007 C 
ATOM     26  CD2 LEU A   3       1.634  -4.083   4.439  1.00  0.00     0.007 C 
ENDBRANCH  23  24
ENDBRANCH   5  23
ENDBRANCH   1   5
BRANCH   3  27
ATOM     27  CA  ILE A   4      -0.216  -2.462  -1.138  1.00  0.00     0.174 C 
BRANCH  27  28
ATOM     28  C   ILE A   4      -1.394  -1.641  -0.679  1.00  0.00     0.243 C 
ATOM     29  N   ARG A   5      -1.609  -0.328  -1.218  1.00  0.00    -0.343 N 
ATOM     30  O   ILE A   4      -2.191  -2.121   0.173  1.00  0.00    -0.273 OA
ATOM     31  H   UNL     1      -0.946   0.028  -1.944  1.00  0.00     0.164 HD
BRANCH  29  32
ATOM     32  CA  ARG A   5      -2.803   0.468  -0.917  1.00  0.00     0.171 C 
BRANCH  32  33
ATOM     33  C   ARG A   5      -3.805   0.341  -2.033  1.00  0.00     0.243 C 
ATOM     34  N   ASN A   6      -5.199   0.566  -1.774  1.00  0.00    -0.341 N 
ATOM     35  O   ARG A   5      -3.412   0.093  -3.208  1.00  0.00    -0.273 OA
ATOM     36  H   UNL     1      -5.498   0.752  -0.789  1.00  0.00     0.164 HD
BRANCH  34  37
ATOM     37  CA  ASN A   6      -6.195   0.594  -2.850  1.00  0.00     0.201 C 
BRANCH  37  38
ATOM     38  C   ASN A   6      -6.031   1.850  -3.661  1.00  0.00     0.326 C 
ATOM     39  O   ASN A   6      -5.912   2.967  -3.086  1.00  0.00    -0.250 OA
BRANCH  38  40
ATOM     40  OXT ASN A   6      -6.034   1.782  -5.049  1.00  0.00    -0.480 OA
ATOM     41  H   UNL     1      -5.938   2.620  -5.612  1.00  0.00     0.296 HD
ENDBRANCH  38  40
ENDBRANCH  37  38
BRANCH  37  42
ATOM     42  CB  ASN A   6      -7.615   0.501  -2.265  1.00  0.00     0.136 C 
BRANCH  42  43
ATOM     43  CG  ASN A   6      -8.649   0.350  -3.346  1.00  0.00     0.220 C 
ATOM     44  ND2 ASN A   6      -9.361   1.488  -3.834  1.00  0.00    -0.370 N 
ATOM     45  OD1 ASN A   6      -8.869  -0.786  -3.846  1.00  0.00    -0.275 OA
ATOM     46  H   UNL     1     -10.086   1.372  -4.577  1.00  0.00     0.159 HD
ATOM     47  H   UNL     1      -9.177   2.440  -3.448  1.00  0.00     0.159 HD
ENDBRANCH  42  43
ENDBRANCH  37  42
ENDBRANCH  34  37
ENDBRANCH  32  33
BRANCH  32  48
ATOM     48  CB  ARG A   5      -2.427   1.946  -0.721  1.00  0.00     0.037 C 
BRANCH  48  49
ATOM     49  CG  ARG A   5      -1.486   2.139   0.480  1.00  0.00     0.024 C 
BRANCH  49  50
ATOM     50  CD  ARG A   5      -1.171   3.621   0.726  1.00  0.00     0.116 C 
BRANCH  50  51
ATOM     51  NE  ARG A   5      -2.329   4.340   1.261  1.00  0.00    -0.357 N 
ATOM     52  CZ  ARG A   5      -2.298   5.753   1.503  1.00  0.00     0.185 C 
ATOM     53  NH2 ARG A   5      -3.445   6.404   2.052  1.00  0.00    -0.370 N 
ATOM     54  H   UNL     1      -3.206   3.818   1.491  1.00  0.00     0.163 HD
ATOM     55  H   UNL     1      -4.306   5.861   2.274  1.00  0.00     0.159 HD
ATOM     56  H   UNL     1      -3.439   7.428   2.249  1.00  0.00     0.159 HD
BRANCH  52  57
ATOM     57  NH1 ARG A   5      -1.234   6.440   1.228  1.00  0.00    -0.270 NA
ATOM     58  H   UNL     1      -1.185   7.470   1.397  1.00  0.00     0.191 HD
ENDBRANCH  52  57
ENDBRANCH  50  51
ENDBRANCH  49  50
ENDBRANCH  48  49
ENDBRANCH  32  48
ENDBRANCH  29  32
ENDBRANCH  27  28
BRANCH  27  59
ATOM     59  CB  ILE A   4      -0.664  -3.734  -1.916  1.00  0.00     0.018 C 
ATOM     60  CG1 ILE A   4      -1.553  -3.358  -3.120  1.00  0.00     0.010 C 
BRANCH  59  61
ATOM     61  CG2 ILE A   4       0.574  -4.540  -2.386  1.00  0.00     0.002 C 
ATOM     62  CD1 ILE A   4       0.220  -5.923  -2.938  1.00  0.00     0.004 C 
ENDBRANCH  59  61
ENDBRANCH  27  59
ENDBRANCH   3  27
TORSDOF 26
