REMARK SMILES CC(C)C[C@H](NC(=O)[C@H](Cc1ccccc1)NC(=O)[C@@H](N)CO)C(=O)NCC(=O)N[C@@H](CCCCN)C(=O)N[C@@H](CC(N)=O)C(=O)O
REMARK SMILES IDX 24 1 25 2 26 3 5 5 6 6 7 7 8 8 9 10 17 11 18 12 19 13 20 15
REMARK SMILES IDX 21 16 22 19 23 20 10 22 11 23 12 24 16 25 13 26 15 27 14 28
REMARK SMILES IDX 4 29 2 30 1 31 3 32 27 33 28 34 30 35 29 36 31 38 37 39
REMARK SMILES IDX 39 40 38 41 40 43 45 44 46 45 47 46 41 48 42 49 43 50 44 51
REMARK SMILES IDX 32 54 33 55 34 56 35 57 36 58
REMARK H PARENT 26 4 6 9 17 14 21 17 21 18 23 21 30 37 39 42 47 47 43 52 43 53
REMARK H PARENT 36 59 36 60
ROOT
ATOM      1  C   LEU A   3      20.060  10.078  -6.484  1.00  0.00     0.243 C 
ATOM      2  O   LEU A   3      20.180   9.153  -5.634  1.00  0.00    -0.273 OA
ATOM      3  N   GLY A   4      20.561   9.913  -7.799  1.00  0.00    -0.345 N 
ATOM      4  H   UNL     1      20.395  10.660  -8.511  1.00  0.00     0.164 HD
ENDROOT
BRANCH   1   5
ATOM      5  CA  LEU A   3      19.342  11.348  -6.149  1.00  0.00     0.171 C 
BRANCH   5   6
ATOM      6  N   LEU A   3      18.084  11.015  -5.542  1.00  0.00    -0.343 N 
ATOM      7  C   PHE A   2      16.888  11.743  -5.776  1.00  0.00     0.243 C 
ATOM      8  O   PHE A   2      16.907  12.795  -6.473  1.00  0.00    -0.273 OA
ATOM      9  H   UNL     1      18.157  10.376  -4.726  1.00  0.00     0.164 HD
BRANCH   7  10
ATOM     10  CA  PHE A   2      15.652  11.312  -5.057  1.00  0.00     0.175 C 
BRANCH  10  11
ATOM     11  N   PHE A   2      14.454  11.738  -5.768  1.00  0.00    -0.343 N 
ATOM     12  C   SER A   1      13.914  13.048  -5.637  1.00  0.00     0.239 C 
ATOM     13  O   SER A   1      14.448  13.868  -4.839  1.00  0.00    -0.273 OA
ATOM     14  H   UNL     1      13.867  10.998  -6.210  1.00  0.00     0.164 HD
BRANCH  12  15
ATOM     15  CA  SER A   1      12.655  13.408  -6.387  1.00  0.00     0.167 C 
BRANCH  15  16
ATOM     16  N   SER A   1      12.467  14.861  -6.384  1.00  0.00    -0.318 NA
ATOM     17  H   UNL     1      12.302  15.171  -5.398  1.00  0.00     0.119 HD
ATOM     18  H   UNL     1      11.583  15.087  -6.894  1.00  0.00     0.119 HD
ENDBRANCH  15  16
BRANCH  15  19
ATOM     19  CB  SER A   1      12.699  12.894  -7.844  1.00  0.00     0.184 C 
BRANCH  19  20
ATOM     20  OG  SER A   1      11.440  13.041  -8.440  1.00  0.00    -0.394 OA
ATOM     21  H   UNL     1      11.550  12.779  -9.392  1.00  0.00     0.210 HD
ENDBRANCH  19  20
ENDBRANCH  15  19
ENDBRANCH  12  15
ENDBRANCH  10  11
BRANCH  10  22
ATOM     22  CB  PHE A   2      15.610   9.773  -4.879  1.00  0.00     0.070 C 
BRANCH  22  23
ATOM     23  CG  PHE A   2      14.435   9.292  -4.091  1.00  0.00    -0.045 A 
ATOM     24  CD1 PHE A   2      13.897  10.048  -3.033  1.00  0.00     0.004 A 
ATOM     25  CD2 PHE A   2      13.963   7.991  -4.310  1.00  0.00     0.004 A 
ATOM     26  CE1 PHE A   2      12.865   9.535  -2.258  1.00  0.00     0.000 A 
ATOM     27  CE2 PHE A   2      12.937   7.477  -3.520  1.00  0.00     0.000 A 
ATOM     28  CZ  PHE A   2      12.384   8.251  -2.500  1.00  0.00     0.000 A 
ENDBRANCH  22  23
ENDBRANCH  10  22
ENDBRANCH   7  10
ENDBRANCH   5   6
BRANCH   5  29
ATOM     29  CB  LEU A   3      20.161  12.251  -5.218  1.00  0.00     0.038 C 
BRANCH  29  30
ATOM     30  CG  LEU A   3      20.415  11.679  -3.794  1.00  0.00    -0.015 C 
ATOM     31  CD1 LEU A   3      21.814  12.073  -3.320  1.00  0.00     0.007 C 
ATOM     32  CD2 LEU A   3      19.366  12.165  -2.782  1.00  0.00     0.007 C 
ENDBRANCH  29  30
ENDBRANCH   5  29
ENDBRANCH   1   5
BRANCH   3  33
ATOM     33  CA  GLY A   4      21.335   8.757  -8.202  1.00  0.00     0.216 C 
BRANCH  33  34
ATOM     34  C   GLY A   4      22.708   9.207  -8.539  1.00  0.00     0.240 C 
ATOM     35  N   LYS A   5      23.809   8.720  -7.784  1.00  0.00    -0.343 N 
ATOM     36  O   GLY A   4      22.884  10.030  -9.477  1.00  0.00    -0.273 OA
ATOM     37  H   UNL     1      23.645   8.007  -7.036  1.00  0.00     0.164 HD
BRANCH  35  38
ATOM     38  CA  LYS A   5      25.176   9.126  -8.070  1.00  0.00     0.171 C 
BRANCH  38  39
ATOM     39  C   LYS A   5      25.895   7.972  -8.686  1.00  0.00     0.243 C 
ATOM     40  N   ASN A   6      25.914   7.871 -10.103  1.00  0.00    -0.341 N 
ATOM     41  O   LYS A   5      26.444   7.090  -7.971  1.00  0.00    -0.273 OA
ATOM     42  H   UNL     1      25.497   8.657 -10.652  1.00  0.00     0.164 HD
BRANCH  40  43
ATOM     43  CA  ASN A   6      26.541   6.754 -10.803  1.00  0.00     0.201 C 
BRANCH  43  44
ATOM     44  C   ASN A   6      27.992   6.644 -10.415  1.00  0.00     0.326 C 
ATOM     45  O   ASN A   6      28.794   7.579 -10.677  1.00  0.00    -0.250 OA
BRANCH  44  46
ATOM     46  OXT ASN A   6      28.449   5.500  -9.767  1.00  0.00    -0.480 OA
ATOM     47  H   UNL     1      29.422   5.409  -9.499  1.00  0.00     0.296 HD
ENDBRANCH  44  46
ENDBRANCH  43  44
BRANCH  43  48
ATOM     48  CB  ASN A   6      26.424   6.947 -12.323  1.00  0.00     0.136 C 
BRANCH  48  49
ATOM     49  CG  ASN A   6      25.009   7.182 -12.772  1.00  0.00     0.220 C 
ATOM     50  ND2 ASN A   6      24.754   8.089 -13.834  1.00  0.00    -0.370 N 
ATOM     51  OD1 ASN A   6      24.051   6.563 -12.238  1.00  0.00    -0.275 OA
ATOM     52  H   UNL     1      23.775   8.258 -14.158  1.00  0.00     0.159 HD
ATOM     53  H   UNL     1      25.534   8.596 -14.309  1.00  0.00     0.159 HD
ENDBRANCH  48  49
ENDBRANCH  43  48
ENDBRANCH  40  43
ENDBRANCH  38  39
BRANCH  38  54
ATOM     54  CB  LYS A   5      25.864   9.604  -6.796  1.00  0.00     0.035 C 
BRANCH  54  55
ATOM     55  CG  LYS A   5      25.145  10.813  -6.186  1.00  0.00     0.004 C 
BRANCH  55  56
ATOM     56  CD  LYS A   5      25.900  11.387  -4.979  1.00  0.00     0.015 C 
BRANCH  56  57
ATOM     57  CE  LYS A   5      26.209  10.392  -3.840  1.00  0.00     0.077 C 
BRANCH  57  58
ATOM     58  NZ  LYS A   5      25.004   9.825  -3.240  1.00  0.00    -0.330 NA
ATOM     59  H   UNL     1      24.484   9.269  -3.955  1.00  0.00     0.118 HD
ATOM     60  H   UNL     1      24.389  10.603  -2.913  1.00  0.00     0.118 HD
ENDBRANCH  57  58
ENDBRANCH  56  57
ENDBRANCH  55  56
ENDBRANCH  54  55
ENDBRANCH  38  54
ENDBRANCH  35  38
ENDBRANCH  33  34
ENDBRANCH   3  33
TORSDOF 26
