REMARK SMILES CC(C)C[C@H](NC(=O)[C@H](CCCNC(=N)N)NC(=O)[C@H](Cc1ccccc1)NC(=O)[C@@H](N)CO)C(=O)N[C@@H](CCCNC(=N)N)C(=O)N[C@@H](CCC(N)=O)C(=O)O
REMARK SMILES IDX 7 1 8 2 6 3 9 5 17 6 18 7 19 8 20 10 28 11 29 12 30 13 31 15
REMARK SMILES IDX 32 16 33 19 34 20 21 22 22 23 23 24 27 25 24 26 26 27 25 28
REMARK SMILES IDX 10 29 11 30 12 31 13 32 14 33 16 34 15 38 5 40 35 41 37 42
REMARK SMILES IDX 36 43 38 45 46 46 48 47 47 48 49 50 55 51 56 52 57 53 50 55
REMARK SMILES IDX 51 56 52 57 53 58 54 59 39 62 40 63 41 64 42 65 43 66 45 67
REMARK SMILES IDX 44 71 4 73 2 74 1 75 3 76
REMARK H PARENT 6 4 17 9 28 14 32 17 32 18 34 21 13 35 16 36 16 37 15 39 37 44
REMARK H PARENT 48 49 57 54 53 60 53 61 42 68 45 69 45 70 44 72
ROOT
ATOM      1  C   ARG A   3      20.035  10.082  -6.472  1.00  0.00     0.243 C 
ATOM      2  O   ARG A   3      20.147   9.160  -5.618  1.00  0.00    -0.273 OA
ATOM      3  N   LEU A   4      20.564   9.921  -7.777  1.00  0.00    -0.343 N 
ATOM      4  H   UNL     1      20.406  10.665  -8.496  1.00  0.00     0.164 HD
ENDROOT
BRANCH   1   5
ATOM      5  CA  ARG A   3      19.335  11.357  -6.139  1.00  0.00     0.171 C 
BRANCH   5   6
ATOM      6  N   ARG A   3      18.086  11.050  -5.495  1.00  0.00    -0.343 N 
ATOM      7  C   PHE A   2      16.884  11.750  -5.772  1.00  0.00     0.243 C 
ATOM      8  O   PHE A   2      16.900  12.792  -6.483  1.00  0.00    -0.273 OA
ATOM      9  H   UNL     1      18.163  10.517  -4.603  1.00  0.00     0.164 HD
BRANCH   7  10
ATOM     10  CA  PHE A   2      15.648  11.313  -5.059  1.00  0.00     0.175 C 
BRANCH  10  11
ATOM     11  N   PHE A   2      14.451  11.740  -5.769  1.00  0.00    -0.343 N 
ATOM     12  C   SER A   1      13.914  13.051  -5.637  1.00  0.00     0.239 C 
ATOM     13  O   SER A   1      14.449  13.870  -4.839  1.00  0.00    -0.273 OA
ATOM     14  H   UNL     1      13.858  11.001  -6.206  1.00  0.00     0.164 HD
BRANCH  12  15
ATOM     15  CA  SER A   1      12.654  13.411  -6.383  1.00  0.00     0.167 C 
BRANCH  15  16
ATOM     16  N   SER A   1      12.467  14.863  -6.382  1.00  0.00    -0.318 NA
ATOM     17  H   UNL     1      11.581  15.088  -6.891  1.00  0.00     0.119 HD
ATOM     18  H   UNL     1      12.304  15.175  -5.397  1.00  0.00     0.119 HD
ENDBRANCH  15  16
BRANCH  15  19
ATOM     19  CB  SER A   1      12.694  12.894  -7.842  1.00  0.00     0.184 C 
BRANCH  19  20
ATOM     20  OG  SER A   1      11.440  13.037  -8.449  1.00  0.00    -0.394 OA
ATOM     21  H   UNL     1      10.855  12.332  -8.065  1.00  0.00     0.210 HD
ENDBRANCH  19  20
ENDBRANCH  15  19
ENDBRANCH  12  15
ENDBRANCH  10  11
BRANCH  10  22
ATOM     22  CB  PHE A   2      15.611   9.774  -4.892  1.00  0.00     0.070 C 
BRANCH  22  23
ATOM     23  CG  PHE A   2      14.444   9.289  -4.090  1.00  0.00    -0.045 A 
ATOM     24  CD1 PHE A   2      13.903  10.046  -3.032  1.00  0.00     0.004 A 
ATOM     25  CD2 PHE A   2      13.968   7.989  -4.310  1.00  0.00     0.004 A 
ATOM     26  CE1 PHE A   2      12.869   9.535  -2.260  1.00  0.00     0.000 A 
ATOM     27  CE2 PHE A   2      12.939   7.477  -3.521  1.00  0.00     0.000 A 
ATOM     28  CZ  PHE A   2      12.386   8.252  -2.502  1.00  0.00     0.000 A 
ENDBRANCH  22  23
ENDBRANCH  10  22
ENDBRANCH   7  10
ENDBRANCH   5   6
BRANCH   5  29
ATOM     29  CB  ARG A   3      20.189  12.251  -5.238  1.00  0.00     0.037 C 
BRANCH  29  30
ATOM     30  CG  ARG A   3      20.432  11.699  -3.814  1.00  0.00     0.024 C 
BRANCH  30  31
ATOM     31  CD  ARG A   3      21.818  12.082  -3.293  1.00  0.00     0.116 C 
BRANCH  31  32
ATOM     32  NE  ARG A   3      21.892  13.516  -3.004  1.00  0.00    -0.357 N 
ATOM     33  CZ  ARG A   3      22.329  14.542  -3.918  1.00  0.00     0.185 C 
ATOM     34  NH2 ARG A   3      22.018  15.905  -3.630  1.00  0.00    -0.370 N 
ATOM     35  H   UNL     1      21.440  13.831  -2.116  1.00  0.00     0.163 HD
ATOM     36  H   UNL     1      21.467  16.158  -2.780  1.00  0.00     0.159 HD
ATOM     37  H   UNL     1      22.334  16.668  -4.270  1.00  0.00     0.159 HD
BRANCH  33  38
ATOM     38  NH1 ARG A   3      23.022  14.270  -4.979  1.00  0.00    -0.270 NA
ATOM     39  H   UNL     1      23.316  13.314  -5.264  1.00  0.00     0.191 HD
ENDBRANCH  33  38
ENDBRANCH  31  32
ENDBRANCH  30  31
ENDBRANCH  29  30
ENDBRANCH   5  29
ENDBRANCH   1   5
BRANCH   3  40
ATOM     40  CA  LEU A   4      21.349   8.759  -8.143  1.00  0.00     0.171 C 
BRANCH  40  41
ATOM     41  C   LEU A   4      22.714   9.215  -8.522  1.00  0.00     0.243 C 
ATOM     42  N   ARG A   5      23.822   8.721  -7.783  1.00  0.00    -0.343 N 
ATOM     43  O   LEU A   4      22.879  10.032  -9.469  1.00  0.00    -0.273 OA
ATOM     44  H   UNL     1      23.665   8.031  -7.013  1.00  0.00     0.164 HD
BRANCH  42  45
ATOM     45  CA  ARG A   5      25.185   9.122  -8.069  1.00  0.00     0.171 C 
BRANCH  45  46
ATOM     46  C   ARG A   5      25.899   7.968  -8.684  1.00  0.00     0.243 C 
ATOM     47  N   GLN A   6      25.924   7.880 -10.101  1.00  0.00    -0.341 N 
ATOM     48  O   ARG A   5      26.441   7.081  -7.971  1.00  0.00    -0.273 OA
ATOM     49  H   UNL     1      25.597   8.716 -10.635  1.00  0.00     0.164 HD
BRANCH  47  50
ATOM     50  CA  GLN A   6      26.537   6.767 -10.815  1.00  0.00     0.192 C 
BRANCH  50  51
ATOM     51  C   GLN A   6      27.986   6.642 -10.427  1.00  0.00     0.326 C 
ATOM     52  O   GLN A   6      28.795   7.576 -10.679  1.00  0.00    -0.250 OA
BRANCH  51  53
ATOM     53  OXT GLN A   6      28.436   5.489  -9.791  1.00  0.00    -0.480 OA
ATOM     54  H   UNL     1      29.408   5.389  -9.523  1.00  0.00     0.296 HD
ENDBRANCH  51  53
ENDBRANCH  50  51
BRANCH  50  55
ATOM     55  CB  GLN A   6      26.419   6.985 -12.334  1.00  0.00     0.047 C 
BRANCH  55  56
ATOM     56  CG  GLN A   6      24.962   7.132 -12.801  1.00  0.00     0.102 C 
BRANCH  56  57
ATOM     57  CD  GLN A   6      24.891   7.120 -14.298  1.00  0.00     0.217 C 
ATOM     58  NE2 GLN A   6      24.814   5.883 -15.007  1.00  0.00    -0.370 N 
ATOM     59  OE1 GLN A   6      24.938   8.205 -14.937  1.00  0.00    -0.275 OA
ATOM     60  H   UNL     1      24.778   5.876 -16.051  1.00  0.00     0.159 HD
ATOM     61  H   UNL     1      24.800   4.975 -14.493  1.00  0.00     0.159 HD
ENDBRANCH  56  57
ENDBRANCH  55  56
ENDBRANCH  50  55
ENDBRANCH  47  50
ENDBRANCH  45  46
BRANCH  45  62
ATOM     62  CB  ARG A   5      25.862   9.603  -6.793  1.00  0.00     0.037 C 
BRANCH  62  63
ATOM     63  CG  ARG A   5      25.169  10.860  -6.268  1.00  0.00     0.024 C 
BRANCH  63  64
ATOM     64  CD  ARG A   5      25.849  11.386  -5.012  1.00  0.00     0.116 C 
BRANCH  64  65
ATOM     65  NE  ARG A   5      25.376  10.688  -3.819  1.00  0.00    -0.357 N 
ATOM     66  CZ  ARG A   5      25.468  11.283  -2.526  1.00  0.00     0.185 C 
ATOM     67  NH2 ARG A   5      26.106  12.548  -2.350  1.00  0.00    -0.370 N 
ATOM     68  H   UNL     1      24.889   9.767  -3.911  1.00  0.00     0.163 HD
ATOM     69  H   UNL     1      26.073  13.028  -1.424  1.00  0.00     0.159 HD
ATOM     70  H   UNL     1      26.701  12.981  -3.089  1.00  0.00     0.159 HD
BRANCH  66  71
ATOM     71  NH1 ARG A   5      24.953  10.673  -1.506  1.00  0.00    -0.270 NA
ATOM     72  H   UNL     1      24.994  11.078  -0.544  1.00  0.00     0.191 HD
ENDBRANCH  66  71
ENDBRANCH  64  65
ENDBRANCH  63  64
ENDBRANCH  62  63
ENDBRANCH  45  62
ENDBRANCH  42  45
ENDBRANCH  40  41
BRANCH  40  73
ATOM     73  CB  LEU A   4      20.658   7.999  -9.276  1.00  0.00     0.038 C 
BRANCH  73  74
ATOM     74  CG  LEU A   4      21.451   6.770  -9.773  1.00  0.00    -0.015 C 
ATOM     75  CD1 LEU A   4      21.764   5.779  -8.641  1.00  0.00     0.007 C 
ATOM     76  CD2 LEU A   4      20.661   6.065 -10.879  1.00  0.00     0.007 C 
ENDBRANCH  73  74
ENDBRANCH  40  73
ENDBRANCH   3  40
TORSDOF 32
