REMARK SMILES CC(C)C[C@H](NC(=O)[C@H](C)NC(=O)[C@@H](N)CO)C(=O)N1CCC[C@H]1C(=O)N[C@@H](CCCNC(=N)N)C(=O)N[C@@H](CC(N)=O)C(=O)O
REMARK SMILES IDX 20 1 24 2 23 3 22 4 21 5 18 6 19 7 5 8 6 9 7 10 8 11 9 13
REMARK SMILES IDX 10 14 11 15 12 16 13 17 14 19 15 20 16 23 17 24 4 26 2 27
REMARK SMILES IDX 1 28 3 29 25 30 27 31 26 32 28 34 36 35 38 36 37 37 39 39
REMARK SMILES IDX 44 40 45 41 46 42 40 44 41 45 42 46 43 47 29 50 30 51 31 52
REMARK SMILES IDX 32 53 33 54 35 55 34 59
REMARK H PARENT 6 12 11 18 15 21 15 22 17 25 27 33 38 38 46 43 42 48 42 49
REMARK H PARENT 32 56 35 57 35 58 34 60
ROOT
ATOM      1  N   PRO A   4      20.315   9.828  -8.447  1.00  0.00    -0.329 N 
ATOM      2  CA  PRO A   4      21.297   8.796  -8.131  1.00  0.00     0.174 C 
ATOM      3  CB  PRO A   4      20.873   7.579  -8.953  1.00  0.00     0.037 C 
ATOM      4  CG  PRO A   4      19.986   8.123 -10.069  1.00  0.00     0.024 C 
ATOM      5  CD  PRO A   4      19.465   9.464  -9.569  1.00  0.00     0.120 C 
ENDROOT
BRANCH   1   6
ATOM      6  C   LEU A   3      20.255  11.129  -7.830  1.00  0.00     0.245 C 
ATOM      7  O   LEU A   3      19.826  12.100  -8.510  1.00  0.00    -0.272 OA
BRANCH   6   8
ATOM      8  CA  LEU A   3      20.725  11.344  -6.402  1.00  0.00     0.171 C 
BRANCH   8   9
ATOM      9  N   LEU A   3      20.953  12.759  -6.054  1.00  0.00    -0.343 N 
ATOM     10  C   ALA A   2      20.027  13.852  -6.209  1.00  0.00     0.242 C 
ATOM     11  O   ALA A   2      18.850  13.654  -6.614  1.00  0.00    -0.273 OA
ATOM     12  H   UNL     1      21.905  12.994  -5.691  1.00  0.00     0.164 HD
BRANCH  10  13
ATOM     13  CA  ALA A   2      20.463  15.258  -5.896  1.00  0.00     0.168 C 
ATOM     14  CB  ALA A   2      19.797  15.733  -4.602  1.00  0.00     0.041 C 
BRANCH  13  15
ATOM     15  N   ALA A   2      20.122  16.146  -7.012  1.00  0.00    -0.343 N 
ATOM     16  C   SER A   1      20.776  16.043  -8.288  1.00  0.00     0.239 C 
ATOM     17  O   SER A   1      21.729  15.231  -8.444  1.00  0.00    -0.273 OA
ATOM     18  H   UNL     1      19.367  16.858  -6.886  1.00  0.00     0.164 HD
BRANCH  16  19
ATOM     19  CA  SER A   1      20.334  16.890  -9.459  1.00  0.00     0.167 C 
BRANCH  19  20
ATOM     20  N   SER A   1      18.945  16.603  -9.822  1.00  0.00    -0.318 NA
ATOM     21  H   UNL     1      18.860  15.584 -10.044  1.00  0.00     0.119 HD
ATOM     22  H   UNL     1      18.317  16.798  -9.008  1.00  0.00     0.119 HD
ENDBRANCH  19  20
BRANCH  19  23
ATOM     23  CB  SER A   1      20.509  18.390  -9.171  1.00  0.00     0.184 C 
BRANCH  23  24
ATOM     24  OG  SER A   1      21.847  18.686  -8.869  1.00  0.00    -0.394 OA
ATOM     25  H   UNL     1      22.344  18.659  -9.728  1.00  0.00     0.210 HD
ENDBRANCH  23  24
ENDBRANCH  19  23
ENDBRANCH  16  19
ENDBRANCH  13  15
ENDBRANCH  10  13
ENDBRANCH   8   9
BRANCH   8  26
ATOM     26  CB  LEU A   3      19.917  10.585  -5.315  1.00  0.00     0.038 C 
BRANCH  26  27
ATOM     27  CG  LEU A   3      18.454  11.013  -5.044  1.00  0.00    -0.015 C 
ATOM     28  CD1 LEU A   3      17.941  10.307  -3.779  1.00  0.00     0.007 C 
ATOM     29  CD2 LEU A   3      17.519  10.683  -6.219  1.00  0.00     0.007 C 
ENDBRANCH  26  27
ENDBRANCH   8  26
ENDBRANCH   6   8
ENDBRANCH   1   6
BRANCH   2  30
ATOM     30  C   PRO A   4      22.682   9.240  -8.509  1.00  0.00     0.243 C 
ATOM     31  N   ARG A   5      23.793   8.710  -7.793  1.00  0.00    -0.343 N 
ATOM     32  O   PRO A   4      22.862  10.037  -9.470  1.00  0.00    -0.273 OA
ATOM     33  H   UNL     1      23.624   7.980  -7.064  1.00  0.00     0.164 HD
BRANCH  31  34
ATOM     34  CA  ARG A   5      25.164   9.114  -8.071  1.00  0.00     0.171 C 
BRANCH  34  35
ATOM     35  C   ARG A   5      25.889   7.965  -8.685  1.00  0.00     0.243 C 
ATOM     36  N   ASN A   6      25.913   7.867 -10.102  1.00  0.00    -0.341 N 
ATOM     37  O   ARG A   5      26.443   7.087  -7.969  1.00  0.00    -0.273 OA
ATOM     38  H   UNL     1      25.496   8.653 -10.652  1.00  0.00     0.164 HD
BRANCH  36  39
ATOM     39  CA  ASN A   6      26.541   6.751 -10.803  1.00  0.00     0.201 C 
BRANCH  39  40
ATOM     40  C   ASN A   6      27.992   6.642 -10.415  1.00  0.00     0.326 C 
ATOM     41  O   ASN A   6      28.794   7.578 -10.676  1.00  0.00    -0.250 OA
BRANCH  40  42
ATOM     42  OXT ASN A   6      28.450   5.499  -9.767  1.00  0.00    -0.480 OA
ATOM     43  H   UNL     1      29.422   5.409  -9.498  1.00  0.00     0.296 HD
ENDBRANCH  40  42
ENDBRANCH  39  40
BRANCH  39  44
ATOM     44  CB  ASN A   6      26.423   6.946 -12.323  1.00  0.00     0.136 C 
BRANCH  44  45
ATOM     45  CG  ASN A   6      25.009   7.182 -12.772  1.00  0.00     0.220 C 
ATOM     46  ND2 ASN A   6      24.754   8.090 -13.834  1.00  0.00    -0.370 N 
ATOM     47  OD1 ASN A   6      24.050   6.564 -12.238  1.00  0.00    -0.275 OA
ATOM     48  H   UNL     1      25.534   8.596 -14.309  1.00  0.00     0.159 HD
ATOM     49  H   UNL     1      23.775   8.260 -14.157  1.00  0.00     0.159 HD
ENDBRANCH  44  45
ENDBRANCH  39  44
ENDBRANCH  36  39
ENDBRANCH  34  35
BRANCH  34  50
ATOM     50  CB  ARG A   5      25.844   9.596  -6.793  1.00  0.00     0.037 C 
BRANCH  50  51
ATOM     51  CG  ARG A   5      25.163  10.859  -6.272  1.00  0.00     0.024 C 
BRANCH  51  52
ATOM     52  CD  ARG A   5      25.842  11.388  -5.016  1.00  0.00     0.116 C 
BRANCH  52  53
ATOM     53  NE  ARG A   5      25.378  10.684  -3.823  1.00  0.00    -0.357 N 
ATOM     54  CZ  ARG A   5      25.469  11.279  -2.527  1.00  0.00     0.185 C 
ATOM     55  NH2 ARG A   5      26.107  12.541  -2.350  1.00  0.00    -0.370 N 
ATOM     56  H   UNL     1      24.901   9.758  -3.921  1.00  0.00     0.163 HD
ATOM     57  H   UNL     1      26.085  13.006  -1.415  1.00  0.00     0.159 HD
ATOM     58  H   UNL     1      26.694  12.983  -3.091  1.00  0.00     0.159 HD
BRANCH  54  59
ATOM     59  NH1 ARG A   5      24.958  10.679  -1.500  1.00  0.00    -0.270 NA
ATOM     60  H   UNL     1      24.476   9.757  -1.583  1.00  0.00     0.191 HD
ENDBRANCH  54  59
ENDBRANCH  52  53
ENDBRANCH  51  52
ENDBRANCH  50  51
ENDBRANCH  34  50
ENDBRANCH  31  34
ENDBRANCH   2  30
TORSDOF 24
