REMARK SMILES CC(C)C[C@H](NC(=O)[C@H](C)NC(=O)[C@H](Cc1ccccc1)NC(=O)[C@@H](N)CO)C(=O)N[C@@H](CCCNC(=N)N)C(=O)N[C@@H](CCCNC(=N)N)C(=O)O
REMARK SMILES IDX 29 1 30 2 31 3 5 5 6 6 7 7 8 8 9 10 10 11 11 12 12 13 13 14
REMARK SMILES IDX 14 16 22 17 23 18 24 19 25 21 26 22 27 25 28 26 15 28 16 29
REMARK SMILES IDX 17 30 21 31 18 32 20 33 19 34 4 35 2 36 1 37 3 38 32 39
REMARK SMILES IDX 40 40 42 41 41 42 43 44 51 45 52 46 53 47 44 49 45 50 46 51
REMARK SMILES IDX 47 52 48 53 50 54 49 58 33 60 34 61 35 62 36 63 37 64 39 65
REMARK SMILES IDX 38 69
REMARK H PARENT 31 4 6 9 11 15 22 20 26 23 26 24 28 27 42 43 53 48 47 55 50 56
REMARK H PARENT 50 57 49 59 36 66 39 67 39 68 38 70
ROOT
ATOM      1  C   LEU A   4      22.712   9.215  -8.518  1.00  0.00     0.243 C 
ATOM      2  O   LEU A   4      22.876  10.031  -9.466  1.00  0.00    -0.273 OA
ATOM      3  N   ARG A   5      23.821   8.719  -7.782  1.00  0.00    -0.343 N 
ATOM      4  H   UNL     1      23.665   8.029  -7.012  1.00  0.00     0.164 HD
ENDROOT
BRANCH   1   5
ATOM      5  CA  LEU A   4      21.346   8.759  -8.137  1.00  0.00     0.171 C 
BRANCH   5   6
ATOM      6  N   LEU A   4      20.560   9.920  -7.773  1.00  0.00    -0.343 N 
ATOM      7  C   ALA A   3      20.046  10.101  -6.462  1.00  0.00     0.242 C 
ATOM      8  O   ALA A   3      20.175   9.200  -5.586  1.00  0.00    -0.273 OA
ATOM      9  H   UNL     1      20.391  10.654  -8.498  1.00  0.00     0.164 HD
BRANCH   7  10
ATOM     10  CA  ALA A   3      19.341  11.375  -6.146  1.00  0.00     0.168 C 
ATOM     11  CB  ALA A   3      20.179  12.246  -5.221  1.00  0.00     0.041 C 
BRANCH  10  12
ATOM     12  N   ALA A   3      18.095  11.060  -5.496  1.00  0.00    -0.343 N 
ATOM     13  C   PHE A   2      16.888  11.752  -5.774  1.00  0.00     0.243 C 
ATOM     14  O   PHE A   2      16.899  12.792  -6.488  1.00  0.00    -0.273 OA
ATOM     15  H   UNL     1      18.188  10.558  -4.585  1.00  0.00     0.164 HD
BRANCH  13  16
ATOM     16  CA  PHE A   2      15.652  11.314  -5.060  1.00  0.00     0.175 C 
BRANCH  16  17
ATOM     17  N   PHE A   2      14.453  11.740  -5.769  1.00  0.00    -0.343 N 
ATOM     18  C   SER A   1      13.915  13.050  -5.636  1.00  0.00     0.239 C 
ATOM     19  O   SER A   1      14.449  13.869  -4.839  1.00  0.00    -0.273 OA
ATOM     20  H   UNL     1      13.861  11.000  -6.206  1.00  0.00     0.164 HD
BRANCH  18  21
ATOM     21  CA  SER A   1      12.655  13.410  -6.383  1.00  0.00     0.167 C 
BRANCH  21  22
ATOM     22  N   SER A   1      12.467  14.862  -6.382  1.00  0.00    -0.318 NA
ATOM     23  H   UNL     1      11.581  15.087  -6.890  1.00  0.00     0.119 HD
ATOM     24  H   UNL     1      12.304  15.174  -5.396  1.00  0.00     0.119 HD
ENDBRANCH  21  22
BRANCH  21  25
ATOM     25  CB  SER A   1      12.695  12.893  -7.842  1.00  0.00     0.184 C 
BRANCH  25  26
ATOM     26  OG  SER A   1      11.440  13.037  -8.449  1.00  0.00    -0.394 OA
ATOM     27  H   UNL     1      10.855  12.333  -8.065  1.00  0.00     0.210 HD
ENDBRANCH  25  26
ENDBRANCH  21  25
ENDBRANCH  18  21
ENDBRANCH  16  17
BRANCH  16  28
ATOM     28  CB  PHE A   2      15.618   9.775  -4.892  1.00  0.00     0.070 C 
BRANCH  28  29
ATOM     29  CG  PHE A   2      14.449   9.289  -4.089  1.00  0.00    -0.045 A 
ATOM     30  CD1 PHE A   2      13.906  10.047  -3.033  1.00  0.00     0.004 A 
ATOM     31  CD2 PHE A   2      13.972   7.990  -4.310  1.00  0.00     0.004 A 
ATOM     32  CE1 PHE A   2      12.870   9.536  -2.261  1.00  0.00     0.000 A 
ATOM     33  CE2 PHE A   2      12.941   7.478  -3.522  1.00  0.00     0.000 A 
ATOM     34  CZ  PHE A   2      12.387   8.253  -2.503  1.00  0.00     0.000 A 
ENDBRANCH  28  29
ENDBRANCH  16  28
ENDBRANCH  13  16
ENDBRANCH  10  12
ENDBRANCH   7  10
ENDBRANCH   5   6
BRANCH   5  35
ATOM     35  CB  LEU A   4      20.656   7.998  -9.272  1.00  0.00     0.038 C 
BRANCH  35  36
ATOM     36  CG  LEU A   4      21.451   6.771  -9.771  1.00  0.00    -0.015 C 
ATOM     37  CD1 LEU A   4      21.764   5.779  -8.641  1.00  0.00     0.007 C 
ATOM     38  CD2 LEU A   4      20.662   6.067 -10.878  1.00  0.00     0.007 C 
ENDBRANCH  35  36
ENDBRANCH   5  35
ENDBRANCH   1   5
BRANCH   3  39
ATOM     39  CA  ARG A   5      25.184   9.121  -8.069  1.00  0.00     0.171 C 
BRANCH  39  40
ATOM     40  C   ARG A   5      25.899   7.968  -8.684  1.00  0.00     0.243 C 
ATOM     41  N   ARG A   6      25.925   7.880 -10.101  1.00  0.00    -0.341 N 
ATOM     42  O   ARG A   5      26.441   7.081  -7.971  1.00  0.00    -0.273 OA
ATOM     43  H   UNL     1      25.601   8.717 -10.635  1.00  0.00     0.164 HD
BRANCH  41  44
ATOM     44  CA  ARG A   6      26.537   6.767 -10.815  1.00  0.00     0.192 C 
BRANCH  44  45
ATOM     45  C   ARG A   6      27.987   6.642 -10.427  1.00  0.00     0.326 C 
ATOM     46  O   ARG A   6      28.795   7.576 -10.678  1.00  0.00    -0.250 OA
BRANCH  45  47
ATOM     47  OXT ARG A   6      28.436   5.489  -9.791  1.00  0.00    -0.480 OA
ATOM     48  H   UNL     1      29.407   5.389  -9.522  1.00  0.00     0.296 HD
ENDBRANCH  45  47
ENDBRANCH  44  45
BRANCH  44  49
ATOM     49  CB  ARG A   6      26.421   6.987 -12.334  1.00  0.00     0.039 C 
BRANCH  49  50
ATOM     50  CG  ARG A   6      24.959   7.130 -12.801  1.00  0.00     0.024 C 
BRANCH  50  51
ATOM     51  CD  ARG A   6      24.846   7.135 -14.332  1.00  0.00     0.116 C 
BRANCH  51  52
ATOM     52  NE  ARG A   6      25.390   8.366 -14.911  1.00  0.00    -0.357 N 
ATOM     53  CZ  ARG A   6      25.441   8.618 -16.326  1.00  0.00     0.185 C 
ATOM     54  NH2 ARG A   6      26.012   9.838 -16.800  1.00  0.00    -0.370 N 
ATOM     55  H   UNL     1      25.751   9.114 -14.276  1.00  0.00     0.163 HD
ATOM     56  H   UNL     1      26.394  10.542 -16.130  1.00  0.00     0.159 HD
ATOM     57  H   UNL     1      26.057  10.040 -17.824  1.00  0.00     0.159 HD
BRANCH  53  58
ATOM     58  NH1 ARG A   6      24.977   7.764 -17.186  1.00  0.00    -0.270 NA
ATOM     59  H   UNL     1      24.543   6.854 -16.918  1.00  0.00     0.191 HD
ENDBRANCH  53  58
ENDBRANCH  51  52
ENDBRANCH  50  51
ENDBRANCH  49  50
ENDBRANCH  44  49
ENDBRANCH  41  44
ENDBRANCH  39  40
BRANCH  39  60
ATOM     60  CB  ARG A   5      25.862   9.603  -6.793  1.00  0.00     0.037 C 
BRANCH  60  61
ATOM     61  CG  ARG A   5      25.167  10.859  -6.269  1.00  0.00     0.024 C 
BRANCH  61  62
ATOM     62  CD  ARG A   5      25.842  11.390  -5.013  1.00  0.00     0.116 C 
BRANCH  62  63
ATOM     63  NE  ARG A   5      25.378  10.687  -3.820  1.00  0.00    -0.357 N 
ATOM     64  CZ  ARG A   5      25.470  11.282  -2.526  1.00  0.00     0.185 C 
ATOM     65  NH2 ARG A   5      26.109  12.546  -2.351  1.00  0.00    -0.370 N 
ATOM     66  H   UNL     1      24.899   9.762  -3.911  1.00  0.00     0.163 HD
ATOM     67  H   UNL     1      26.083  13.023  -1.422  1.00  0.00     0.159 HD
ATOM     68  H   UNL     1      26.700  12.981  -3.092  1.00  0.00     0.159 HD
BRANCH  64  69
ATOM     69  NH1 ARG A   5      24.956  10.671  -1.506  1.00  0.00    -0.270 NA
ATOM     70  H   UNL     1      24.999  11.075  -0.544  1.00  0.00     0.191 HD
ENDBRANCH  64  69
ENDBRANCH  62  63
ENDBRANCH  61  62
ENDBRANCH  60  61
ENDBRANCH  39  60
ENDBRANCH   3  39
TORSDOF 29
