REMARK SMILES C[C@H](NC(=O)[C@H](C)NC(=O)[C@H](Cc1ccccc1)NC(=O)[C@@H](N)CO)C(=O)N[C@@H](CCCNC(=N)N)C(=O)N[C@@H](CC(N)=O)C(=O)O
REMARK SMILES IDX 4 1 5 2 3 3 6 5 7 6 8 7 9 8 10 9 11 11 19 12 20 13 21 14
REMARK SMILES IDX 22 16 23 17 24 20 25 21 12 23 13 24 14 25 18 26 15 27 17 28
REMARK SMILES IDX 16 29 2 30 1 31 26 32 28 33 27 34 29 36 37 37 39 38 38 39
REMARK SMILES IDX 40 41 45 42 46 43 47 44 41 46 42 47 43 48 44 49 30 52 31 53
REMARK SMILES IDX 32 54 33 55 34 56 36 57 35 61
REMARK H PARENT 3 4 8 10 19 15 23 18 23 19 25 22 28 35 39 40 47 45 43 50 43 51
REMARK H PARENT 33 58 36 59 36 60 35 62
ROOT
ATOM      1  C   ALA A   3      -0.822  -0.113   0.485  1.00  0.00     0.242 C 
ATOM      2  O   ALA A   3      -1.337  -0.588   1.537  1.00  0.00    -0.273 OA
ATOM      3  N   ALA A   4       0.311  -0.759  -0.121  1.00  0.00    -0.343 N 
ATOM      4  H   UNL     1       0.747  -0.314  -0.965  1.00  0.00     0.164 HD
ENDROOT
BRANCH   1   5
ATOM      5  CA  ALA A   3      -1.358   1.168  -0.095  1.00  0.00     0.168 C 
ATOM      6  CB  ALA A   3      -0.807   2.358   0.685  1.00  0.00     0.041 C 
BRANCH   5   7
ATOM      7  N   ALA A   3      -2.824   1.175  -0.035  1.00  0.00    -0.343 N 
ATOM      8  C   PHE A   2      -3.659   1.208  -1.204  1.00  0.00     0.243 C 
ATOM      9  O   PHE A   2      -3.140   1.266  -2.353  1.00  0.00    -0.273 OA
ATOM     10  H   UNL     1      -3.274   1.065   0.897  1.00  0.00     0.164 HD
BRANCH   8  11
ATOM     11  CA  PHE A   2      -5.158   1.103  -1.085  1.00  0.00     0.175 C 
BRANCH  11  12
ATOM     12  N   PHE A   2      -5.517  -0.217  -0.550  1.00  0.00    -0.343 N 
ATOM     13  C   SER A   1      -6.370  -1.140  -1.249  1.00  0.00     0.239 C 
ATOM     14  O   SER A   1      -6.760  -0.868  -2.418  1.00  0.00    -0.273 OA
ATOM     15  H   UNL     1      -5.146  -0.487   0.389  1.00  0.00     0.164 HD
BRANCH  13  16
ATOM     16  CA  SER A   1      -6.730  -2.473  -0.619  1.00  0.00     0.167 C 
BRANCH  16  17
ATOM     17  N   SER A   1      -7.217  -2.307   0.754  1.00  0.00    -0.318 NA
ATOM     18  H   UNL     1      -7.879  -1.499   0.801  1.00  0.00     0.119 HD
ATOM     19  H   UNL     1      -6.410  -2.104   1.384  1.00  0.00     0.119 HD
ENDBRANCH  16  17
BRANCH  16  20
ATOM     20  CB  SER A   1      -7.772  -3.266  -1.433  1.00  0.00     0.184 C 
BRANCH  20  21
ATOM     21  OG  SER A   1      -9.028  -2.636  -1.398  1.00  0.00    -0.394 OA
ATOM     22  H   UNL     1      -9.061  -2.012  -2.169  1.00  0.00     0.210 HD
ENDBRANCH  20  21
ENDBRANCH  16  20
ENDBRANCH  13  16
ENDBRANCH  11  12
BRANCH  11  23
ATOM     23  CB  PHE A   2      -5.724   2.220  -0.191  1.00  0.00     0.070 C 
BRANCH  23  24
ATOM     24  CG  PHE A   2      -7.228   2.154  -0.134  1.00  0.00    -0.045 A 
ATOM     25  CD1 PHE A   2      -8.006   2.751  -1.140  1.00  0.00     0.004 A 
ATOM     26  CD2 PHE A   2      -7.865   1.435   0.892  1.00  0.00     0.004 A 
ATOM     27  CE1 PHE A   2      -9.401   2.646  -1.108  1.00  0.00     0.000 A 
ATOM     28  CE2 PHE A   2      -9.259   1.326   0.917  1.00  0.00     0.000 A 
ATOM     29  CZ  PHE A   2     -10.027   1.930  -0.083  1.00  0.00     0.000 A 
ENDBRANCH  23  24
ENDBRANCH  11  23
ENDBRANCH   8  11
ENDBRANCH   5   7
ENDBRANCH   1   5
BRANCH   3  30
ATOM     30  CA  ALA A   4       1.015  -1.864   0.533  1.00  0.00     0.168 C 
ATOM     31  CB  ALA A   4       1.520  -2.868  -0.507  1.00  0.00     0.041 C 
BRANCH  30  32
ATOM     32  C   ALA A   4       2.149  -1.318   1.358  1.00  0.00     0.242 C 
ATOM     33  N   ARG A   5       3.254  -0.647   0.730  1.00  0.00    -0.343 N 
ATOM     34  O   ALA A   4       2.122  -1.458   2.610  1.00  0.00    -0.273 OA
ATOM     35  H   UNL     1       3.218  -0.487  -0.302  1.00  0.00     0.164 HD
BRANCH  33  36
ATOM     36  CA  ARG A   5       4.400  -0.138   1.491  1.00  0.00     0.171 C 
BRANCH  36  37
ATOM     37  C   ARG A   5       5.200   0.829   0.648  1.00  0.00     0.243 C 
ATOM     38  N   ASN A   6       4.744   2.186   0.510  1.00  0.00    -0.341 N 
ATOM     39  O   ARG A   5       6.228   0.438   0.034  1.00  0.00    -0.273 OA
ATOM     40  H   UNL     1       3.829   2.440   0.944  1.00  0.00     0.164 HD
BRANCH  38  41
ATOM     41  CA  ASN A   6       5.520   3.275  -0.103  1.00  0.00     0.201 C 
BRANCH  41  42
ATOM     42  C   ASN A   6       5.569   3.139  -1.603  1.00  0.00     0.326 C 
ATOM     43  O   ASN A   6       5.599   2.004  -2.154  1.00  0.00    -0.250 OA
BRANCH  42  44
ATOM     44  OXT ASN A   6       5.633   4.287  -2.389  1.00  0.00    -0.480 OA
ATOM     45  H   UNL     1       5.717   4.226  -3.394  1.00  0.00     0.296 HD
ENDBRANCH  42  44
ENDBRANCH  41  42
BRANCH  41  46
ATOM     46  CB  ASN A   6       6.932   3.377   0.511  1.00  0.00     0.136 C 
BRANCH  46  47
ATOM     47  CG  ASN A   6       7.583   4.688   0.183  1.00  0.00     0.220 C 
ATOM     48  ND2 ASN A   6       7.218   5.871   0.894  1.00  0.00    -0.370 N 
ATOM     49  OD1 ASN A   6       8.433   4.756  -0.745  1.00  0.00    -0.275 OA
ATOM     50  H   UNL     1       7.677   6.782   0.669  1.00  0.00     0.159 HD
ATOM     51  H   UNL     1       6.486   5.838   1.635  1.00  0.00     0.159 HD
ENDBRANCH  46  47
ENDBRANCH  41  46
ENDBRANCH  38  41
ENDBRANCH  36  37
BRANCH  36  52
ATOM     52  CB  ARG A   5       5.275  -1.276   2.100  1.00  0.00     0.037 C 
BRANCH  52  53
ATOM     53  CG  ARG A   5       5.270  -2.633   1.365  1.00  0.00     0.024 C 
BRANCH  53  54
ATOM     54  CD  ARG A   5       5.892  -2.574  -0.031  1.00  0.00     0.116 C 
BRANCH  54  55
ATOM     55  NE  ARG A   5       5.892  -3.905  -0.637  1.00  0.00    -0.357 N 
ATOM     56  CZ  ARG A   5       6.816  -4.938  -0.260  1.00  0.00     0.185 C 
ATOM     57  NH2 ARG A   5       6.697  -6.244  -0.830  1.00  0.00    -0.370 N 
ATOM     58  H   UNL     1       5.202  -4.101  -1.399  1.00  0.00     0.163 HD
ATOM     59  H   UNL     1       7.383  -6.997  -0.595  1.00  0.00     0.159 HD
ATOM     60  H   UNL     1       5.925  -6.465  -1.499  1.00  0.00     0.159 HD
BRANCH  56  61
ATOM     61  NH1 ARG A   5       7.763  -4.689   0.587  1.00  0.00    -0.270 NA
ATOM     62  H   UNL     1       8.451  -5.421   0.873  1.00  0.00     0.191 HD
ENDBRANCH  56  61
ENDBRANCH  54  55
ENDBRANCH  53  54
ENDBRANCH  52  53
ENDBRANCH  36  52
ENDBRANCH  33  36
ENDBRANCH  30  32
ENDBRANCH   3  30
TORSDOF 24
