REMARK SMILES CC(C)C[C@H](NC(=O)[C@H](Cc1c[nH]cn1)NC(=O)[C@H](Cc1ccccc1)NC(=O)[C@H](C)N)C(=O)N[C@@H](CCCNC(=N)N)C(=O)N[C@@H](CC(N)=O)C(=O)O
REMARK SMILES IDX 5 1 6 2 7 3 8 4 9 6 16 7 17 8 18 9 19 11 27 12 28 13 29 14
REMARK SMILES IDX 30 16 31 17 32 18 20 21 21 22 22 23 26 24 23 25 25 26 24 27
REMARK SMILES IDX 10 28 11 29 15 30 12 31 14 32 13 33 33 35 35 36 34 37 36 39
REMARK SMILES IDX 44 40 46 41 45 42 47 44 52 45 53 46 54 47 48 49 49 50 50 51
REMARK SMILES IDX 51 52 37 55 38 56 39 57 40 58 41 59 43 60 42 64 4 66 2 67
REMARK SMILES IDX 1 68 3 69
REMARK H PARENT 6 5 16 10 27 15 32 19 32 20 13 34 35 38 46 43 54 48 50 53
REMARK H PARENT 50 54 40 61 43 62 43 63 42 65
ROOT
ATOM      1  CA  LEU A   4      21.348   8.760  -8.138  1.00  0.00     0.171 C 
ENDROOT
BRANCH   1   2
ATOM      2  N   LEU A   4      20.563   9.921  -7.771  1.00  0.00    -0.342 N 
ATOM      3  C   HIS A   3      20.051  10.095  -6.459  1.00  0.00     0.243 C 
ATOM      4  O   HIS A   3      20.168   9.181  -5.595  1.00  0.00    -0.273 OA
ATOM      5  H   UNL     1      20.396  10.660  -8.493  1.00  0.00     0.164 HD
BRANCH   3   6
ATOM      6  CA  HIS A   3      19.347  11.367  -6.130  1.00  0.00     0.177 C 
BRANCH   6   7
ATOM      7  N   HIS A   3      18.090  11.044  -5.506  1.00  0.00    -0.342 N 
ATOM      8  C   PHE A   2      16.890  11.750  -5.775  1.00  0.00     0.243 C 
ATOM      9  O   PHE A   2      16.908  12.795  -6.483  1.00  0.00    -0.273 OA
ATOM     10  H   UNL     1      18.163  10.483  -4.632  1.00  0.00     0.164 HD
BRANCH   8  11
ATOM     11  CA  PHE A   2      15.649  11.316  -5.069  1.00  0.00     0.175 C 
BRANCH  11  12
ATOM     12  N   PHE A   2      14.464  11.749  -5.795  1.00  0.00    -0.343 N 
ATOM     13  C   ALA A   1      13.906  13.049  -5.629  1.00  0.00     0.237 C 
ATOM     14  O   ALA A   1      14.437  13.860  -4.821  1.00  0.00    -0.273 OA
ATOM     15  H   UNL     1      13.999  11.063  -6.428  1.00  0.00     0.164 HD
BRANCH  13  16
ATOM     16  CA  ALA A   1      12.651  13.422  -6.377  1.00  0.00     0.138 C 
ATOM     17  CB  ALA A   1      12.684  12.893  -7.822  1.00  0.00     0.035 C 
BRANCH  16  18
ATOM     18  N   ALA A   1      12.484  14.876  -6.391  1.00  0.00    -0.320 NA
ATOM     19  H   UNL     1      11.593  15.106  -6.889  1.00  0.00     0.119 HD
ATOM     20  H   UNL     1      12.336  15.201  -5.407  1.00  0.00     0.119 HD
ENDBRANCH  16  18
ENDBRANCH  13  16
ENDBRANCH  11  12
BRANCH  11  21
ATOM     21  CB  PHE A   2      15.604   9.777  -4.900  1.00  0.00     0.070 C 
BRANCH  21  22
ATOM     22  CG  PHE A   2      14.437   9.294  -4.096  1.00  0.00    -0.045 A 
ATOM     23  CD1 PHE A   2      13.901  10.049  -3.036  1.00  0.00     0.004 A 
ATOM     24  CD2 PHE A   2      13.966   7.992  -4.312  1.00  0.00     0.004 A 
ATOM     25  CE1 PHE A   2      12.869   9.537  -2.260  1.00  0.00     0.000 A 
ATOM     26  CE2 PHE A   2      12.940   7.478  -3.520  1.00  0.00     0.000 A 
ATOM     27  CZ  PHE A   2      12.387   8.253  -2.501  1.00  0.00     0.000 A 
ENDBRANCH  21  22
ENDBRANCH  11  21
ENDBRANCH   8  11
ENDBRANCH   6   7
BRANCH   6  28
ATOM     28  CB  HIS A   3      20.180  12.262  -5.201  1.00  0.00     0.093 C 
BRANCH  28  29
ATOM     29  CG  HIS A   3      20.417  11.676  -3.834  1.00  0.00     0.061 A 
ATOM     30  ND1 HIS A   3      19.571  11.819  -2.794  1.00  0.00    -0.242 NA
ATOM     31  CD2 HIS A   3      21.499  10.912  -3.455  1.00  0.00     0.107 A 
ATOM     32  CE1 HIS A   3      20.164  11.129  -1.797  1.00  0.00     0.196 A 
ATOM     33  NE2 HIS A   3      21.331  10.570  -2.170  1.00  0.00    -0.351 N 
ATOM     34  H   UNL     1      21.966   9.987  -1.582  1.00  0.00     0.167 HD
ENDBRANCH  28  29
ENDBRANCH   6  28
ENDBRANCH   3   6
ENDBRANCH   1   2
BRANCH   1  35
ATOM     35  C   LEU A   4      22.713   9.216  -8.520  1.00  0.00     0.243 C 
ATOM     36  N   ARG A   5      23.822   8.720  -7.785  1.00  0.00    -0.343 N 
ATOM     37  O   LEU A   4      22.876  10.032  -9.467  1.00  0.00    -0.273 OA
ATOM     38  H   UNL     1      23.667   8.031  -7.014  1.00  0.00     0.164 HD
BRANCH  36  39
ATOM     39  CA  ARG A   5      25.185   9.122  -8.073  1.00  0.00     0.171 C 
BRANCH  39  40
ATOM     40  C   ARG A   5      25.900   7.968  -8.685  1.00  0.00     0.243 C 
ATOM     41  N   ASN A   6      25.913   7.864 -10.102  1.00  0.00    -0.341 N 
ATOM     42  O   ARG A   5      26.447   7.087  -7.969  1.00  0.00    -0.273 OA
ATOM     43  H   UNL     1      25.489   8.647 -10.651  1.00  0.00     0.164 HD
BRANCH  41  44
ATOM     44  CA  ASN A   6      26.542   6.751 -10.804  1.00  0.00     0.201 C 
BRANCH  44  45
ATOM     45  C   ASN A   6      27.993   6.642 -10.416  1.00  0.00     0.326 C 
ATOM     46  O   ASN A   6      28.794   7.579 -10.677  1.00  0.00    -0.250 OA
BRANCH  45  47
ATOM     47  OXT ASN A   6      28.451   5.499  -9.768  1.00  0.00    -0.480 OA
ATOM     48  H   UNL     1      29.424   5.409  -9.500  1.00  0.00     0.296 HD
ENDBRANCH  45  47
ENDBRANCH  44  45
BRANCH  44  49
ATOM     49  CB  ASN A   6      26.424   6.946 -12.323  1.00  0.00     0.136 C 
BRANCH  49  50
ATOM     50  CG  ASN A   6      25.010   7.180 -12.773  1.00  0.00     0.220 C 
ATOM     51  ND2 ASN A   6      24.753   8.090 -13.833  1.00  0.00    -0.370 N 
ATOM     52  OD1 ASN A   6      24.053   6.558 -12.243  1.00  0.00    -0.275 OA
ATOM     53  H   UNL     1      23.775   8.258 -14.156  1.00  0.00     0.159 HD
ATOM     54  H   UNL     1      25.533   8.600 -14.306  1.00  0.00     0.159 HD
ENDBRANCH  49  50
ENDBRANCH  44  49
ENDBRANCH  41  44
ENDBRANCH  39  40
BRANCH  39  55
ATOM     55  CB  ARG A   5      25.863   9.605  -6.796  1.00  0.00     0.037 C 
BRANCH  55  56
ATOM     56  CG  ARG A   5      25.166  10.861  -6.271  1.00  0.00     0.024 C 
BRANCH  56  57
ATOM     57  CD  ARG A   5      25.840  11.392  -5.015  1.00  0.00     0.116 C 
BRANCH  57  58
ATOM     58  NE  ARG A   5      25.379  10.684  -3.823  1.00  0.00    -0.357 N 
ATOM     59  CZ  ARG A   5      25.468  11.279  -2.527  1.00  0.00     0.185 C 
ATOM     60  NH2 ARG A   5      26.103  12.542  -2.350  1.00  0.00    -0.370 N 
ATOM     61  H   UNL     1      24.907   9.756  -3.921  1.00  0.00     0.163 HD
ATOM     62  H   UNL     1      26.689  12.985  -3.090  1.00  0.00     0.159 HD
ATOM     63  H   UNL     1      26.080  13.008  -1.415  1.00  0.00     0.159 HD
BRANCH  59  64
ATOM     64  NH1 ARG A   5      24.962  10.677  -1.499  1.00  0.00    -0.270 NA
ATOM     65  H   UNL     1      24.487   9.750  -1.583  1.00  0.00     0.191 HD
ENDBRANCH  59  64
ENDBRANCH  57  58
ENDBRANCH  56  57
ENDBRANCH  55  56
ENDBRANCH  39  55
ENDBRANCH  36  39
ENDBRANCH   1  35
BRANCH   1  66
ATOM     66  CB  LEU A   4      20.655   7.999  -9.271  1.00  0.00     0.038 C 
BRANCH  66  67
ATOM     67  CG  LEU A   4      21.448   6.771  -9.768  1.00  0.00    -0.015 C 
ATOM     68  CD1 LEU A   4      21.762   5.778  -8.639  1.00  0.00     0.007 C 
ATOM     69  CD2 LEU A   4      20.661   6.068 -10.877  1.00  0.00     0.007 C 
ENDBRANCH  66  67
ENDBRANCH   1  66
TORSDOF 26
