REMARK SMILES CC(C)C[C@H](NC(=O)CNC(=O)[C@H](Cc1ccccc1)NC(=O)[C@@H](N)CO)C(=O)N[C@@H](CCCCN)C(=O)N[C@@H](CC(N)=O)C(=O)O
REMARK SMILES IDX 7 1 8 2 6 3 9 5 10 6 11 7 12 8 13 10 21 11 22 12 23 13 24 15
REMARK SMILES IDX 25 16 26 19 27 20 14 22 15 23 16 24 20 25 17 26 19 27 18 28
REMARK SMILES IDX 5 29 28 30 30 31 29 32 31 34 37 35 39 36 38 37 40 39 45 40
REMARK SMILES IDX 46 41 47 42 41 44 42 45 43 46 44 47 32 50 33 51 34 52 35 53
REMARK SMILES IDX 36 54 4 57 2 58 1 59 3 60
REMARK H PARENT 6 4 10 9 21 14 25 17 25 18 27 21 30 33 39 38 47 43 43 48 43 49
REMARK H PARENT 36 55 36 56
ROOT
ATOM      1  C   GLY A   3      20.042  10.101  -6.466  1.00  0.00     0.240 C 
ATOM      2  O   GLY A   3      20.173   9.205  -5.586  1.00  0.00    -0.273 OA
ATOM      3  N   LEU A   4      20.558   9.919  -7.775  1.00  0.00    -0.343 N 
ATOM      4  H   UNL     1      20.388  10.651  -8.502  1.00  0.00     0.164 HD
ENDROOT
BRANCH   1   5
ATOM      5  CA  GLY A   3      19.352  11.377  -6.153  1.00  0.00     0.216 C 
BRANCH   5   6
ATOM      6  N   GLY A   3      18.113  11.084  -5.477  1.00  0.00    -0.345 N 
ATOM      7  C   PHE A   2      16.897  11.757  -5.771  1.00  0.00     0.243 C 
ATOM      8  O   PHE A   2      16.902  12.791  -6.493  1.00  0.00    -0.273 OA
ATOM      9  H   UNL     1      18.214  10.611  -4.552  1.00  0.00     0.164 HD
BRANCH   7  10
ATOM     10  CA  PHE A   2      15.660  11.315  -5.060  1.00  0.00     0.175 C 
BRANCH  10  11
ATOM     11  N   PHE A   2      14.461  11.740  -5.769  1.00  0.00    -0.343 N 
ATOM     12  C   SER A   1      13.920  13.049  -5.633  1.00  0.00     0.239 C 
ATOM     13  O   SER A   1      14.449  13.867  -4.832  1.00  0.00    -0.273 OA
ATOM     14  H   UNL     1      13.874  11.000  -6.212  1.00  0.00     0.164 HD
BRANCH  12  15
ATOM     15  CA  SER A   1      12.663  13.409  -6.386  1.00  0.00     0.167 C 
BRANCH  15  16
ATOM     16  N   SER A   1      12.455  14.859  -6.398  1.00  0.00    -0.318 NA
ATOM     17  H   UNL     1      13.315  15.336  -6.756  1.00  0.00     0.119 HD
ATOM     18  H   UNL     1      12.286  15.189  -5.420  1.00  0.00     0.119 HD
ENDBRANCH  15  16
BRANCH  15  19
ATOM     19  CB  SER A   1      12.690  12.885  -7.839  1.00  0.00     0.184 C 
BRANCH  19  20
ATOM     20  OG  SER A   1      11.438  13.053  -8.445  1.00  0.00    -0.394 OA
ATOM     21  H   UNL     1      10.838  12.362  -8.060  1.00  0.00     0.210 HD
ENDBRANCH  19  20
ENDBRANCH  15  19
ENDBRANCH  12  15
ENDBRANCH  10  11
BRANCH  10  22
ATOM     22  CB  PHE A   2      15.628   9.778  -4.891  1.00  0.00     0.070 C 
BRANCH  22  23
ATOM     23  CG  PHE A   2      14.456   9.289  -4.088  1.00  0.00    -0.045 A 
ATOM     24  CD1 PHE A   2      13.910  10.047  -3.033  1.00  0.00     0.004 A 
ATOM     25  CD2 PHE A   2      13.977   7.991  -4.310  1.00  0.00     0.004 A 
ATOM     26  CE1 PHE A   2      12.872   9.537  -2.263  1.00  0.00     0.000 A 
ATOM     27  CE2 PHE A   2      12.944   7.479  -3.524  1.00  0.00     0.000 A 
ATOM     28  CZ  PHE A   2      12.389   8.254  -2.506  1.00  0.00     0.000 A 
ENDBRANCH  22  23
ENDBRANCH  10  22
ENDBRANCH   7  10
ENDBRANCH   5   6
ENDBRANCH   1   5
BRANCH   3  29
ATOM     29  CA  LEU A   4      21.346   8.758  -8.137  1.00  0.00     0.171 C 
BRANCH  29  30
ATOM     30  C   LEU A   4      22.712   9.217  -8.519  1.00  0.00     0.243 C 
ATOM     31  N   LYS A   5      23.822   8.728  -7.781  1.00  0.00    -0.343 N 
ATOM     32  O   LEU A   4      22.874  10.032  -9.468  1.00  0.00    -0.273 OA
ATOM     33  H   UNL     1      23.669   8.037  -7.012  1.00  0.00     0.164 HD
BRANCH  31  34
ATOM     34  CA  LYS A   5      25.185   9.131  -8.072  1.00  0.00     0.171 C 
BRANCH  34  35
ATOM     35  C   LYS A   5      25.898   7.974  -8.686  1.00  0.00     0.243 C 
ATOM     36  N   ASN A   6      25.912   7.869 -10.103  1.00  0.00    -0.341 N 
ATOM     37  O   LYS A   5      26.444   7.091  -7.970  1.00  0.00    -0.273 OA
ATOM     38  H   UNL     1      25.489   8.652 -10.652  1.00  0.00     0.164 HD
BRANCH  36  39
ATOM     39  CA  ASN A   6      26.541   6.753 -10.803  1.00  0.00     0.201 C 
BRANCH  39  40
ATOM     40  C   ASN A   6      27.991   6.643 -10.415  1.00  0.00     0.326 C 
ATOM     41  O   ASN A   6      28.794   7.579 -10.677  1.00  0.00    -0.250 OA
BRANCH  40  42
ATOM     42  OXT ASN A   6      28.448   5.500  -9.766  1.00  0.00    -0.480 OA
ATOM     43  H   UNL     1      29.421   5.410  -9.497  1.00  0.00     0.296 HD
ENDBRANCH  40  42
ENDBRANCH  39  40
BRANCH  39  44
ATOM     44  CB  ASN A   6      26.424   6.947 -12.323  1.00  0.00     0.136 C 
BRANCH  44  45
ATOM     45  CG  ASN A   6      25.010   7.181 -12.773  1.00  0.00     0.220 C 
ATOM     46  ND2 ASN A   6      24.753   8.090 -13.834  1.00  0.00    -0.370 N 
ATOM     47  OD1 ASN A   6      24.052   6.558 -12.243  1.00  0.00    -0.275 OA
ATOM     48  H   UNL     1      23.775   8.258 -14.157  1.00  0.00     0.159 HD
ATOM     49  H   UNL     1      25.533   8.600 -14.306  1.00  0.00     0.159 HD
ENDBRANCH  44  45
ENDBRANCH  39  44
ENDBRANCH  36  39
ENDBRANCH  34  35
BRANCH  34  50
ATOM     50  CB  LYS A   5      25.868   9.608  -6.795  1.00  0.00     0.035 C 
BRANCH  50  51
ATOM     51  CG  LYS A   5      25.165  10.840  -6.215  1.00  0.00     0.004 C 
BRANCH  51  52
ATOM     52  CD  LYS A   5      25.885  11.378  -4.972  1.00  0.00     0.015 C 
BRANCH  52  53
ATOM     53  CE  LYS A   5      25.700  10.506  -3.719  1.00  0.00     0.077 C 
BRANCH  53  54
ATOM     54  NZ  LYS A   5      26.640   9.388  -3.712  1.00  0.00    -0.330 NA
ATOM     55  H   UNL     1      27.602   9.770  -3.563  1.00  0.00     0.118 HD
ATOM     56  H   UNL     1      26.423   8.795  -2.879  1.00  0.00     0.118 HD
ENDBRANCH  53  54
ENDBRANCH  52  53
ENDBRANCH  51  52
ENDBRANCH  50  51
ENDBRANCH  34  50
ENDBRANCH  31  34
ENDBRANCH  29  30
BRANCH  29  57
ATOM     57  CB  LEU A   4      20.655   7.997  -9.270  1.00  0.00     0.038 C 
BRANCH  57  58
ATOM     58  CG  LEU A   4      21.449   6.770  -9.768  1.00  0.00    -0.015 C 
ATOM     59  CD1 LEU A   4      21.763   5.778  -8.638  1.00  0.00     0.007 C 
ATOM     60  CD2 LEU A   4      20.663   6.066 -10.877  1.00  0.00     0.007 C 
ENDBRANCH  57  58
ENDBRANCH  29  57
ENDBRANCH   3  29
TORSDOF 26
