REMARK SMILES CC(C)C[C@H](NC(=O)[C@@H]1CCCN1C(=O)[C@@H](N)CO)C(=O)N[C@@H](CCC(N)=O)C(=O)N[C@@H](CCCNC(=N)N)C(=O)N[C@@H](CC(N)=O)C(=O)O
REMARK SMILES IDX 20 1 21 2 22 3 5 5 6 6 7 7 8 8 9 10 13 11 12 12 10 13 11 14
REMARK SMILES IDX 14 15 15 16 16 17 17 18 18 21 19 22 4 24 2 25 1 26 3 27
REMARK SMILES IDX 23 28 29 29 31 30 30 31 32 33 40 34 42 35 41 36 43 38 48 39
REMARK SMILES IDX 49 40 50 41 44 43 45 44 46 45 47 46 33 49 34 50 35 51 36 52
REMARK SMILES IDX 37 53 39 54 38 58 24 60 25 61 26 62 27 63 28 64
REMARK H PARENT 22 4 6 9 17 19 17 20 19 23 31 32 42 37 50 42 46 47 46 48 36 55
REMARK H PARENT 39 56 39 57 38 59 27 65 27 66
ROOT
ATOM      1  C   LEU A   3      20.043  10.069  -6.429  1.00  0.00     0.243 C 
ATOM      2  O   LEU A   3      20.194   9.170  -5.559  1.00  0.00    -0.273 OA
ATOM      3  N   GLN A   4      20.560   9.907  -7.746  1.00  0.00    -0.343 N 
ATOM      4  H   UNL     1      20.389  10.648  -8.465  1.00  0.00     0.164 HD
ENDROOT
BRANCH   1   5
ATOM      5  CA  LEU A   3      19.295  11.312  -6.107  1.00  0.00     0.171 C 
BRANCH   5   6
ATOM      6  N   LEU A   3      18.022  11.001  -5.482  1.00  0.00    -0.343 N 
ATOM      7  C   PRO A   2      16.854  11.779  -5.731  1.00  0.00     0.243 C 
ATOM      8  O   PRO A   2      16.920  12.821  -6.438  1.00  0.00    -0.273 OA
ATOM      9  H   UNL     1      17.965  10.199  -4.816  1.00  0.00     0.164 HD
BRANCH   7  10
ATOM     10  CA  PRO A   2      15.536  11.354  -5.143  1.00  0.00     0.174 C 
ATOM     11  N   PRO A   2      15.417   9.901  -5.145  1.00  0.00    -0.329 N 
ATOM     12  CD  PRO A   2      15.380   9.340  -3.803  1.00  0.00     0.120 C 
ATOM     13  CB  PRO A   2      15.381  11.776  -3.683  1.00  0.00     0.037 C 
ATOM     14  CG  PRO A   2      15.595  10.512  -2.853  1.00  0.00     0.024 C 
BRANCH  11  15
ATOM     15  C   SER A   1      15.361   9.122  -6.357  1.00  0.00     0.242 C 
ATOM     16  O   SER A   1      15.215   9.713  -7.462  1.00  0.00    -0.273 OA
BRANCH  15  17
ATOM     17  CA  SER A   1      15.581   7.623  -6.343  1.00  0.00     0.167 C 
BRANCH  17  18
ATOM     18  N   SER A   1      14.847   6.965  -7.429  1.00  0.00    -0.318 NA
ATOM     19  H   UNL     1      13.832   7.199  -7.340  1.00  0.00     0.119 HD
ATOM     20  H   UNL     1      15.178   7.328  -8.353  1.00  0.00     0.119 HD
ENDBRANCH  17  18
BRANCH  17  21
ATOM     21  CB  SER A   1      17.083   7.318  -6.453  1.00  0.00     0.184 C 
BRANCH  21  22
ATOM     22  OG  SER A   1      17.313   5.937  -6.365  1.00  0.00    -0.394 OA
ATOM     23  H   UNL     1      17.193   5.567  -7.279  1.00  0.00     0.210 HD
ENDBRANCH  21  22
ENDBRANCH  17  21
ENDBRANCH  15  17
ENDBRANCH  11  15
ENDBRANCH   7  10
ENDBRANCH   5   6
BRANCH   5  24
ATOM     24  CB  LEU A   3      20.125  12.329  -5.307  1.00  0.00     0.038 C 
BRANCH  24  25
ATOM     25  CG  LEU A   3      20.423  12.200  -3.789  1.00  0.00    -0.015 C 
ATOM     26  CD1 LEU A   3      21.818  11.746  -3.399  1.00  0.00     0.007 C 
ATOM     27  CD2 LEU A   3      19.298  11.864  -2.831  1.00  0.00     0.007 C 
ENDBRANCH  24  25
ENDBRANCH   5  24
ENDBRANCH   1   5
BRANCH   3  28
ATOM     28  CA  GLN A   4      21.346   8.751  -8.132  1.00  0.00     0.171 C 
BRANCH  28  29
ATOM     29  C   GLN A   4      22.710   9.213  -8.515  1.00  0.00     0.243 C 
ATOM     30  N   ARG A   5      23.821   8.712  -7.788  1.00  0.00    -0.343 N 
ATOM     31  O   GLN A   4      22.871  10.033  -9.461  1.00  0.00    -0.273 OA
ATOM     32  H   UNL     1      23.669   7.992  -7.044  1.00  0.00     0.164 HD
BRANCH  30  33
ATOM     33  CA  ARG A   5      25.183   9.120  -8.073  1.00  0.00     0.171 C 
BRANCH  33  34
ATOM     34  C   ARG A   5      25.902   7.969  -8.686  1.00  0.00     0.243 C 
ATOM     35  N   ASN A   6      25.914   7.865 -10.102  1.00  0.00    -0.341 N 
ATOM     36  O   ARG A   5      26.450   7.088  -7.970  1.00  0.00    -0.273 OA
ATOM     37  H   UNL     1      25.488   8.647 -10.651  1.00  0.00     0.164 HD
BRANCH  35  38
ATOM     38  CA  ASN A   6      26.542   6.751 -10.804  1.00  0.00     0.201 C 
BRANCH  38  39
ATOM     39  C   ASN A   6      27.993   6.642 -10.416  1.00  0.00     0.326 C 
ATOM     40  O   ASN A   6      28.794   7.579 -10.677  1.00  0.00    -0.250 OA
BRANCH  39  41
ATOM     41  OXT ASN A   6      28.451   5.499  -9.769  1.00  0.00    -0.480 OA
ATOM     42  H   UNL     1      29.424   5.409  -9.500  1.00  0.00     0.296 HD
ENDBRANCH  39  41
ENDBRANCH  38  39
BRANCH  38  43
ATOM     43  CB  ASN A   6      26.425   6.947 -12.323  1.00  0.00     0.136 C 
BRANCH  43  44
ATOM     44  CG  ASN A   6      25.011   7.181 -12.773  1.00  0.00     0.220 C 
ATOM     45  ND2 ASN A   6      24.754   8.090 -13.833  1.00  0.00    -0.370 N 
ATOM     46  OD1 ASN A   6      24.053   6.558 -12.243  1.00  0.00    -0.275 OA
ATOM     47  H   UNL     1      25.533   8.600 -14.306  1.00  0.00     0.159 HD
ATOM     48  H   UNL     1      23.775   8.258 -14.157  1.00  0.00     0.159 HD
ENDBRANCH  43  44
ENDBRANCH  38  43
ENDBRANCH  35  38
ENDBRANCH  33  34
BRANCH  33  49
ATOM     49  CB  ARG A   5      25.859   9.603  -6.794  1.00  0.00     0.037 C 
BRANCH  49  50
ATOM     50  CG  ARG A   5      25.163  10.858  -6.269  1.00  0.00     0.024 C 
BRANCH  50  51
ATOM     51  CD  ARG A   5      25.838  11.390  -5.014  1.00  0.00     0.116 C 
BRANCH  51  52
ATOM     52  NE  ARG A   5      25.376  10.687  -3.820  1.00  0.00    -0.357 N 
ATOM     53  CZ  ARG A   5      25.468  11.281  -2.526  1.00  0.00     0.185 C 
ATOM     54  NH2 ARG A   5      26.108  12.546  -2.352  1.00  0.00    -0.370 N 
ATOM     55  H   UNL     1      24.890   9.765  -3.912  1.00  0.00     0.163 HD
ATOM     56  H   UNL     1      26.081  13.023  -1.423  1.00  0.00     0.159 HD
ATOM     57  H   UNL     1      26.696  12.982  -3.093  1.00  0.00     0.159 HD
BRANCH  53  58
ATOM     58  NH1 ARG A   5      24.954  10.672  -1.506  1.00  0.00    -0.270 NA
ATOM     59  H   UNL     1      24.996  11.076  -0.544  1.00  0.00     0.191 HD
ENDBRANCH  53  58
ENDBRANCH  51  52
ENDBRANCH  50  51
ENDBRANCH  49  50
ENDBRANCH  33  49
ENDBRANCH  30  33
ENDBRANCH  28  29
BRANCH  28  60
ATOM     60  CB  GLN A   4      20.652   7.996  -9.272  1.00  0.00     0.045 C 
BRANCH  60  61
ATOM     61  CG  GLN A   4      21.446   6.772  -9.758  1.00  0.00     0.102 C 
BRANCH  61  62
ATOM     62  CD  GLN A   4      21.755   5.807  -8.647  1.00  0.00     0.217 C 
ATOM     63  NE2 GLN A   4      23.104   5.439  -8.357  1.00  0.00    -0.370 N 
ATOM     64  OE1 GLN A   4      20.814   5.300  -7.979  1.00  0.00    -0.275 OA
ATOM     65  H   UNL     1      23.895   5.818  -8.923  1.00  0.00     0.159 HD
ATOM     66  H   UNL     1      23.313   4.777  -7.578  1.00  0.00     0.159 HD
ENDBRANCH  61  62
ENDBRANCH  60  61
ENDBRANCH  28  60
ENDBRANCH   3  28
TORSDOF 27
