REMARK SMILES N=C(N)NCCC[C@H](NC(=O)[C@@H]1CCCN1C(=O)[C@H](CO)NC(=O)[C@H](Cc1ccccc1)NC(=O)[C@@H](N)CO)C(=O)N[C@@H](CC(N)=O)C(=O)O
REMARK SMILES IDX 16 1 12 2 13 3 14 4 15 5 17 6 18 7 19 8 22 9 23 10 24 11
REMARK SMILES IDX 25 13 33 14 34 15 35 16 36 18 37 19 38 22 39 23 26 25 27 26
REMARK SMILES IDX 28 27 32 28 29 29 31 30 30 31 20 32 21 33 10 35 9 36 11 37
REMARK SMILES IDX 8 39 40 40 42 41 41 42 43 44 48 45 49 46 50 47 44 49 45 50
REMARK SMILES IDX 46 51 47 52 7 55 6 56 5 57 4 58 2 59 3 60 1 64
REMARK H PARENT 22 12 33 17 37 20 37 21 39 24 21 34 9 38 42 43 50 48 46 53
REMARK H PARENT 46 54 4 61 3 62 3 63 1 65
ROOT
ATOM      1  N   PRO A   4      -0.648  -3.037  -1.723  1.00  0.00    -0.329 N 
ATOM      2  CA  PRO A   4       0.370  -2.955  -0.680  1.00  0.00     0.174 C 
ATOM      3  CB  PRO A   4       0.769  -4.401  -0.370  1.00  0.00     0.037 C 
ATOM      4  CG  PRO A   4      -0.319  -5.274  -0.985  1.00  0.00     0.024 C 
ATOM      5  CD  PRO A   4      -1.015  -4.412  -2.029  1.00  0.00     0.120 C 
ENDROOT
BRANCH   1   6
ATOM      6  C   SER A   3      -1.277  -1.873  -2.303  1.00  0.00     0.248 C 
ATOM      7  O   SER A   3      -0.676  -0.766  -2.273  1.00  0.00    -0.272 OA
BRANCH   6   8
ATOM      8  CA  SER A   3      -2.632  -1.941  -2.970  1.00  0.00     0.197 C 
BRANCH   8   9
ATOM      9  N   SER A   3      -3.398  -0.723  -2.679  1.00  0.00    -0.340 N 
ATOM     10  C   PHE A   2      -3.922  -0.453  -1.369  1.00  0.00     0.243 C 
ATOM     11  O   PHE A   2      -3.804  -1.310  -0.451  1.00  0.00    -0.273 OA
ATOM     12  H   UNL     1      -3.588  -0.035  -3.440  1.00  0.00     0.164 HD
BRANCH  10  13
ATOM     13  CA  PHE A   2      -4.570   0.876  -1.077  1.00  0.00     0.175 C 
BRANCH  13  14
ATOM     14  N   PHE A   2      -5.681   0.707  -0.133  1.00  0.00    -0.343 N 
ATOM     15  C   SER A   1      -7.034   0.499  -0.565  1.00  0.00     0.239 C 
ATOM     16  O   SER A   1      -7.311   0.478  -1.797  1.00  0.00    -0.273 OA
ATOM     17  H   UNL     1      -5.468   0.553   0.877  1.00  0.00     0.164 HD
BRANCH  15  18
ATOM     18  CA  SER A   1      -8.116   0.235   0.459  1.00  0.00     0.167 C 
BRANCH  18  19
ATOM     19  N   SER A   1      -9.417   0.749   0.021  1.00  0.00    -0.318 NA
ATOM     20  H   UNL     1      -9.688   0.312  -0.891  1.00  0.00     0.119 HD
ATOM     21  H   UNL     1      -9.330   1.780  -0.138  1.00  0.00     0.119 HD
ENDBRANCH  18  19
BRANCH  18  22
ATOM     22  CB  SER A   1      -8.215  -1.262   0.787  1.00  0.00     0.184 C 
BRANCH  22  23
ATOM     23  OG  SER A   1      -8.584  -2.013  -0.341  1.00  0.00    -0.394 OA
ATOM     24  H   UNL     1      -7.745  -2.225  -0.830  1.00  0.00     0.210 HD
ENDBRANCH  22  23
ENDBRANCH  18  22
ENDBRANCH  15  18
ENDBRANCH  13  14
BRANCH  13  25
ATOM     25  CB  PHE A   2      -3.549   1.917  -0.569  1.00  0.00     0.070 C 
BRANCH  25  26
ATOM     26  CG  PHE A   2      -2.932   1.581   0.770  1.00  0.00    -0.045 A 
ATOM     27  CD1 PHE A   2      -3.457   2.126   1.955  1.00  0.00     0.004 A 
ATOM     28  CD2 PHE A   2      -1.808   0.742   0.842  1.00  0.00     0.004 A 
ATOM     29  CE1 PHE A   2      -2.860   1.839   3.187  1.00  0.00     0.000 A 
ATOM     30  CE2 PHE A   2      -1.211   0.461   2.074  1.00  0.00     0.000 A 
ATOM     31  CZ  PHE A   2      -1.735   1.012   3.246  1.00  0.00     0.000 A 
ENDBRANCH  25  26
ENDBRANCH  13  25
ENDBRANCH  10  13
ENDBRANCH   8   9
BRANCH   8  32
ATOM     32  CB  SER A   3      -2.478  -2.145  -4.486  1.00  0.00     0.191 C 
BRANCH  32  33
ATOM     33  OG  SER A   3      -1.808  -1.065  -5.081  1.00  0.00    -0.394 OA
ATOM     34  H   UNL     1      -0.837  -1.259  -5.019  1.00  0.00     0.210 HD
ENDBRANCH  32  33
ENDBRANCH   8  32
ENDBRANCH   6   8
ENDBRANCH   1   6
BRANCH   2  35
ATOM     35  C   PRO A   4       1.565  -2.148  -1.123  1.00  0.00     0.243 C 
ATOM     36  N   ARG A   5       2.149  -1.185  -0.233  1.00  0.00    -0.343 N 
ATOM     37  O   PRO A   4       2.066  -2.345  -2.265  1.00  0.00    -0.273 OA
ATOM     38  H   UNL     1       1.648  -0.977   0.660  1.00  0.00     0.164 HD
BRANCH  36  39
ATOM     39  CA  ARG A   5       3.301  -0.357  -0.615  1.00  0.00     0.171 C 
BRANCH  39  40
ATOM     40  C   ARG A   5       4.172  -0.026   0.577  1.00  0.00     0.243 C 
ATOM     41  N   ASN A   6       5.421   0.655   0.381  1.00  0.00    -0.341 N 
ATOM     42  O   ARG A   5       3.828  -0.386   1.737  1.00  0.00    -0.273 OA
ATOM     43  H   UNL     1       5.753   0.799  -0.600  1.00  0.00     0.164 HD
BRANCH  41  44
ATOM     44  CA  ASN A   6       6.347   0.924   1.486  1.00  0.00     0.201 C 
BRANCH  44  45
ATOM     45  C   ASN A   6       7.148   2.166   1.197  1.00  0.00     0.326 C 
ATOM     46  O   ASN A   6       7.735   2.307   0.090  1.00  0.00    -0.250 OA
BRANCH  45  47
ATOM     47  OXT ASN A   6       7.271   3.150   2.173  1.00  0.00    -0.480 OA
ATOM     48  H   UNL     1       7.813   3.988   2.002  1.00  0.00     0.296 HD
ENDBRANCH  45  47
ENDBRANCH  44  45
BRANCH  44  49
ATOM     49  CB  ASN A   6       7.263  -0.292   1.699  1.00  0.00     0.136 C 
BRANCH  49  50
ATOM     50  CG  ASN A   6       8.157  -0.111   2.893  1.00  0.00     0.220 C 
ATOM     51  ND2 ASN A   6       9.512   0.311   2.726  1.00  0.00    -0.370 N 
ATOM     52  OD1 ASN A   6       7.697  -0.290   4.053  1.00  0.00    -0.275 OA
ATOM     53  H   UNL     1       9.906   0.471   1.772  1.00  0.00     0.159 HD
ATOM     54  H   UNL     1      10.120   0.476   3.557  1.00  0.00     0.159 HD
ENDBRANCH  49  50
ENDBRANCH  44  49
ENDBRANCH  41  44
ENDBRANCH  39  40
BRANCH  39  55
ATOM     55  CB  ARG A   5       2.845   0.903  -1.389  1.00  0.00     0.037 C 
BRANCH  55  56
ATOM     56  CG  ARG A   5       1.643   1.669  -0.793  1.00  0.00     0.024 C 
BRANCH  56  57
ATOM     57  CD  ARG A   5       1.864   2.256   0.608  1.00  0.00     0.116 C 
BRANCH  57  58
ATOM     58  NE  ARG A   5       2.973   3.214   0.633  1.00  0.00    -0.357 N 
ATOM     59  CZ  ARG A   5       3.462   3.824   1.840  1.00  0.00     0.185 C 
ATOM     60  NH2 ARG A   5       4.584   4.704   1.775  1.00  0.00    -0.370 N 
ATOM     61  H   UNL     1       3.429   3.495  -0.265  1.00  0.00     0.163 HD
ATOM     62  H   UNL     1       5.060   4.890   0.865  1.00  0.00     0.159 HD
ATOM     63  H   UNL     1       4.952   5.159   2.640  1.00  0.00     0.159 HD
BRANCH  59  64
ATOM     64  NH1 ARG A   5       2.899   3.606   2.988  1.00  0.00    -0.270 NA
ATOM     65  H   UNL     1       2.068   2.988   3.116  1.00  0.00     0.191 HD
ENDBRANCH  59  64
ENDBRANCH  57  58
ENDBRANCH  56  57
ENDBRANCH  55  56
ENDBRANCH  39  55
ENDBRANCH  36  39
ENDBRANCH   2  35
TORSDOF 26
