REMARK SMILES CC(C)C[C@H](NC(=O)[C@H](CC(N)=O)NC(=O)[C@H](Cc1ccccc1)NC(=O)[C@@H](N)CO)C(=O)N[C@@H](CCCNC(=N)N)C(=O)N[C@@H](CCCCN)C(=O)O
REMARK SMILES IDX 32 1 33 2 34 3 5 5 6 6 7 7 8 8 9 10 14 11 15 12 16 13 17 15
REMARK SMILES IDX 25 16 26 17 27 18 28 20 29 21 30 24 31 25 18 27 19 28 20 29
REMARK SMILES IDX 24 30 21 31 23 32 22 33 10 34 11 35 12 36 13 37 4 40 2 41
REMARK SMILES IDX 1 42 3 43 35 44 43 45 45 46 44 47 46 49 52 50 53 51 54 52
REMARK SMILES IDX 47 54 48 55 49 56 50 57 51 58 36 61 37 62 38 63 39 64 40 65
REMARK SMILES IDX 42 66 41 70
REMARK H PARENT 34 4 6 9 14 14 25 19 29 22 29 23 31 26 12 38 12 39 45 48 54 53
REMARK H PARENT 51 59 51 60 39 67 42 68 42 69 41 71
ROOT
ATOM      1  C   LEU A   4      22.713   9.216  -8.519  1.00  0.00     0.243 C 
ATOM      2  O   LEU A   4      22.877  10.032  -9.467  1.00  0.00    -0.273 OA
ATOM      3  N   ARG A   5      23.821   8.720  -7.783  1.00  0.00    -0.343 N 
ATOM      4  H   UNL     1      23.666   8.030  -7.013  1.00  0.00     0.164 HD
ENDROOT
BRANCH   1   5
ATOM      5  CA  LEU A   4      21.347   8.759  -8.139  1.00  0.00     0.171 C 
BRANCH   5   6
ATOM      6  N   LEU A   4      20.562   9.921  -7.772  1.00  0.00    -0.342 N 
ATOM      7  C   ASN A   3      20.052  10.096  -6.459  1.00  0.00     0.243 C 
ATOM      8  O   ASN A   3      20.172   9.184  -5.594  1.00  0.00    -0.273 OA
ATOM      9  H   UNL     1      20.394  10.658  -8.494  1.00  0.00     0.164 HD
BRANCH   7  10
ATOM     10  CA  ASN A   3      19.346  11.368  -6.131  1.00  0.00     0.180 C 
BRANCH  10  11
ATOM     11  N   ASN A   3      18.089  11.044  -5.509  1.00  0.00    -0.342 N 
ATOM     12  C   PHE A   2      16.887  11.749  -5.775  1.00  0.00     0.243 C 
ATOM     13  O   PHE A   2      16.903  12.793  -6.483  1.00  0.00    -0.273 OA
ATOM     14  H   UNL     1      18.164  10.482  -4.636  1.00  0.00     0.164 HD
BRANCH  12  15
ATOM     15  CA  PHE A   2      15.651  11.313  -5.060  1.00  0.00     0.175 C 
BRANCH  15  16
ATOM     16  N   PHE A   2      14.453  11.740  -5.769  1.00  0.00    -0.343 N 
ATOM     17  C   SER A   1      13.915  13.051  -5.636  1.00  0.00     0.239 C 
ATOM     18  O   SER A   1      14.449  13.870  -4.839  1.00  0.00    -0.273 OA
ATOM     19  H   UNL     1      13.861  11.001  -6.208  1.00  0.00     0.164 HD
BRANCH  17  20
ATOM     20  CA  SER A   1      12.655  13.410  -6.383  1.00  0.00     0.167 C 
BRANCH  20  21
ATOM     21  N   SER A   1      12.467  14.863  -6.382  1.00  0.00    -0.318 NA
ATOM     22  H   UNL     1      12.304  15.174  -5.396  1.00  0.00     0.119 HD
ATOM     23  H   UNL     1      11.581  15.087  -6.890  1.00  0.00     0.119 HD
ENDBRANCH  20  21
BRANCH  20  24
ATOM     24  CB  SER A   1      12.695  12.894  -7.842  1.00  0.00     0.184 C 
BRANCH  24  25
ATOM     25  OG  SER A   1      11.440  13.037  -8.449  1.00  0.00    -0.394 OA
ATOM     26  H   UNL     1      10.855  12.333  -8.065  1.00  0.00     0.210 HD
ENDBRANCH  24  25
ENDBRANCH  20  24
ENDBRANCH  17  20
ENDBRANCH  15  16
BRANCH  15  27
ATOM     27  CB  PHE A   2      15.612   9.774  -4.890  1.00  0.00     0.070 C 
BRANCH  27  28
ATOM     28  CG  PHE A   2      14.442   9.290  -4.091  1.00  0.00    -0.045 A 
ATOM     29  CD1 PHE A   2      13.903  10.047  -3.033  1.00  0.00     0.004 A 
ATOM     30  CD2 PHE A   2      13.968   7.990  -4.310  1.00  0.00     0.004 A 
ATOM     31  CE1 PHE A   2      12.869   9.536  -2.260  1.00  0.00     0.000 A 
ATOM     32  CE2 PHE A   2      12.939   7.477  -3.521  1.00  0.00     0.000 A 
ATOM     33  CZ  PHE A   2      12.386   8.252  -2.502  1.00  0.00     0.000 A 
ENDBRANCH  27  28
ENDBRANCH  15  27
ENDBRANCH  12  15
ENDBRANCH  10  11
BRANCH  10  34
ATOM     34  CB  ASN A   3      20.177  12.263  -5.202  1.00  0.00     0.134 C 
BRANCH  34  35
ATOM     35  CG  ASN A   3      20.419  11.673  -3.835  1.00  0.00     0.220 C 
ATOM     36  ND2 ASN A   3      19.496  11.905  -2.770  1.00  0.00    -0.370 N 
ATOM     37  OD1 ASN A   3      21.442  10.966  -3.629  1.00  0.00    -0.275 OA
ATOM     38  H   UNL     1      18.641  12.486  -2.923  1.00  0.00     0.159 HD
ATOM     39  H   UNL     1      19.663  11.490  -1.827  1.00  0.00     0.159 HD
ENDBRANCH  34  35
ENDBRANCH  10  34
ENDBRANCH   7  10
ENDBRANCH   5   6
BRANCH   5  40
ATOM     40  CB  LEU A   4      20.656   7.999  -9.273  1.00  0.00     0.038 C 
BRANCH  40  41
ATOM     41  CG  LEU A   4      21.450   6.771  -9.771  1.00  0.00    -0.015 C 
ATOM     42  CD1 LEU A   4      21.764   5.779  -8.641  1.00  0.00     0.007 C 
ATOM     43  CD2 LEU A   4      20.662   6.067 -10.878  1.00  0.00     0.007 C 
ENDBRANCH  40  41
ENDBRANCH   5  40
ENDBRANCH   1   5
BRANCH   3  44
ATOM     44  CA  ARG A   5      25.185   9.121  -8.070  1.00  0.00     0.171 C 
BRANCH  44  45
ATOM     45  C   ARG A   5      25.899   7.967  -8.685  1.00  0.00     0.243 C 
ATOM     46  N   LYS A   6      25.921   7.876 -10.102  1.00  0.00    -0.341 N 
ATOM     47  O   ARG A   5      26.443   7.082  -7.971  1.00  0.00    -0.273 OA
ATOM     48  H   UNL     1      25.574   8.703 -10.637  1.00  0.00     0.164 HD
BRANCH  46  49
ATOM     49  CA  LYS A   6      26.538   6.765 -10.815  1.00  0.00     0.192 C 
BRANCH  49  50
ATOM     50  C   LYS A   6      27.987   6.643 -10.426  1.00  0.00     0.326 C 
ATOM     51  O   LYS A   6      28.795   7.577 -10.679  1.00  0.00    -0.250 OA
BRANCH  50  52
ATOM     52  OXT LYS A   6      28.438   5.492  -9.787  1.00  0.00    -0.480 OA
ATOM     53  H   UNL     1      29.409   5.394  -9.518  1.00  0.00     0.296 HD
ENDBRANCH  50  52
ENDBRANCH  49  50
BRANCH  49  54
ATOM     54  CB  LYS A   6      26.421   6.982 -12.335  1.00  0.00     0.037 C 
BRANCH  54  55
ATOM     55  CG  LYS A   6      24.960   7.137 -12.800  1.00  0.00     0.004 C 
BRANCH  55  56
ATOM     56  CD  LYS A   6      24.807   6.978 -14.321  1.00  0.00     0.015 C 
BRANCH  56  57
ATOM     57  CE  LYS A   6      25.442   8.135 -15.101  1.00  0.00     0.077 C 
BRANCH  57  58
ATOM     58  NZ  LYS A   6      25.174   7.984 -16.528  1.00  0.00    -0.330 NA
ATOM     59  H   UNL     1      24.156   8.165 -16.691  1.00  0.00     0.118 HD
ATOM     60  H   UNL     1      25.693   8.740 -17.031  1.00  0.00     0.118 HD
ENDBRANCH  57  58
ENDBRANCH  56  57
ENDBRANCH  55  56
ENDBRANCH  54  55
ENDBRANCH  49  54
ENDBRANCH  46  49
ENDBRANCH  44  45
BRANCH  44  61
ATOM     61  CB  ARG A   5      25.863   9.604  -6.794  1.00  0.00     0.037 C 
BRANCH  61  62
ATOM     62  CG  ARG A   5      25.167  10.861  -6.271  1.00  0.00     0.024 C 
BRANCH  62  63
ATOM     63  CD  ARG A   5      25.841  11.391  -5.014  1.00  0.00     0.116 C 
BRANCH  63  64
ATOM     64  NE  ARG A   5      25.377  10.685  -3.823  1.00  0.00    -0.357 N 
ATOM     65  CZ  ARG A   5      25.468  11.279  -2.527  1.00  0.00     0.185 C 
ATOM     66  NH2 ARG A   5      26.106  12.541  -2.349  1.00  0.00    -0.370 N 
ATOM     67  H   UNL     1      24.900   9.759  -3.921  1.00  0.00     0.163 HD
ATOM     68  H   UNL     1      26.693  12.982  -3.089  1.00  0.00     0.159 HD
ATOM     69  H   UNL     1      26.083  13.006  -1.414  1.00  0.00     0.159 HD
BRANCH  65  70
ATOM     70  NH1 ARG A   5      24.957  10.679  -1.499  1.00  0.00    -0.270 NA
ATOM     71  H   UNL     1      24.476   9.756  -1.583  1.00  0.00     0.191 HD
ENDBRANCH  65  70
ENDBRANCH  63  64
ENDBRANCH  62  63
ENDBRANCH  61  62
ENDBRANCH  44  61
ENDBRANCH   3  44
TORSDOF 31
