REMARK SMILES C[C@H](NC(=O)[C@H](CC(=O)O)NC(=O)[C@H](Cc1ccccc1)NC(=O)[C@@H](N)CO)C(=O)N[C@@H](CCCNC(=N)N)C(=O)N[C@@H](CC(N)=O)C(=O)O
REMARK SMILES IDX 4 1 5 2 3 3 6 5 11 6 12 7 13 8 14 10 22 11 23 12 24 13 25 15
REMARK SMILES IDX 26 16 27 19 28 20 15 22 16 23 17 24 21 25 18 26 20 27 19 28
REMARK SMILES IDX 7 29 8 30 9 31 10 32 2 34 1 35 29 36 31 37 30 38 32 40 40 41
REMARK SMILES IDX 42 42 41 43 43 45 48 46 49 47 50 48 44 50 45 51 46 52 47 53
REMARK SMILES IDX 33 56 34 57 35 58 36 59 37 60 39 61 38 65
REMARK H PARENT 3 4 11 9 22 14 26 17 26 18 28 21 10 33 31 39 42 44 50 49 46 54
REMARK H PARENT 46 55 36 62 39 63 39 64 38 66
ROOT
ATOM      1  C   ASP A   3      20.054  10.090  -6.461  1.00  0.00     0.243 C 
ATOM      2  O   ASP A   3      20.177   9.180  -5.594  1.00  0.00    -0.273 OA
ATOM      3  N   ALA A   4      20.558   9.910  -7.775  1.00  0.00    -0.343 N 
ATOM      4  H   UNL     1      20.390  10.649  -8.496  1.00  0.00     0.164 HD
ENDROOT
BRANCH   1   5
ATOM      5  CA  ASP A   3      19.349  11.364  -6.132  1.00  0.00     0.182 C 
BRANCH   5   6
ATOM      6  N   ASP A   3      18.090  11.043  -5.508  1.00  0.00    -0.342 N 
ATOM      7  C   PHE A   2      16.889  11.749  -5.774  1.00  0.00     0.243 C 
ATOM      8  O   PHE A   2      16.905  12.793  -6.483  1.00  0.00    -0.273 OA
ATOM      9  H   UNL     1      18.166  10.486  -4.632  1.00  0.00     0.164 HD
BRANCH   7  10
ATOM     10  CA  PHE A   2      15.653  11.314  -5.059  1.00  0.00     0.175 C 
BRANCH  10  11
ATOM     11  N   PHE A   2      14.456  11.741  -5.770  1.00  0.00    -0.343 N 
ATOM     12  C   SER A   1      13.914  13.050  -5.637  1.00  0.00     0.239 C 
ATOM     13  O   SER A   1      14.442  13.870  -4.836  1.00  0.00    -0.273 OA
ATOM     14  H   UNL     1      13.874  11.001  -6.219  1.00  0.00     0.164 HD
BRANCH  12  15
ATOM     15  CA  SER A   1      12.660  13.411  -6.390  1.00  0.00     0.167 C 
BRANCH  15  16
ATOM     16  N   SER A   1      12.475  14.863  -6.375  1.00  0.00    -0.318 NA
ATOM     17  H   UNL     1      13.174  15.315  -7.010  1.00  0.00     0.119 HD
ATOM     18  H   UNL     1      11.521  15.090  -6.739  1.00  0.00     0.119 HD
ENDBRANCH  15  16
BRANCH  15  19
ATOM     19  CB  SER A   1      12.687  12.878  -7.844  1.00  0.00     0.184 C 
BRANCH  19  20
ATOM     20  OG  SER A   1      11.436  13.047  -8.450  1.00  0.00    -0.394 OA
ATOM     21  H   UNL     1      11.446  13.936  -8.892  1.00  0.00     0.210 HD
ENDBRANCH  19  20
ENDBRANCH  15  19
ENDBRANCH  12  15
ENDBRANCH  10  11
BRANCH  10  22
ATOM     22  CB  PHE A   2      15.613   9.774  -4.889  1.00  0.00     0.070 C 
BRANCH  22  23
ATOM     23  CG  PHE A   2      14.443   9.290  -4.091  1.00  0.00    -0.045 A 
ATOM     24  CD1 PHE A   2      13.903  10.047  -3.033  1.00  0.00     0.004 A 
ATOM     25  CD2 PHE A   2      13.968   7.990  -4.310  1.00  0.00     0.004 A 
ATOM     26  CE1 PHE A   2      12.869   9.536  -2.260  1.00  0.00     0.000 A 
ATOM     27  CE2 PHE A   2      12.939   7.477  -3.521  1.00  0.00     0.000 A 
ATOM     28  CZ  PHE A   2      12.386   8.253  -2.502  1.00  0.00     0.000 A 
ENDBRANCH  22  23
ENDBRANCH  10  22
ENDBRANCH   7  10
ENDBRANCH   5   6
BRANCH   5  29
ATOM     29  CB  ASP A   3      20.179  12.261  -5.203  1.00  0.00     0.157 C 
BRANCH  29  30
ATOM     30  CG  ASP A   3      20.419  11.671  -3.838  1.00  0.00     0.305 C 
ATOM     31  OD1 ASP A   3      21.448  10.976  -3.622  1.00  0.00    -0.252 OA
BRANCH  30  32
ATOM     32  OD2 ASP A   3      19.499  11.886  -2.817  1.00  0.00    -0.481 OA
ATOM     33  H   UNL     1      19.643  11.490  -1.896  1.00  0.00     0.296 HD
ENDBRANCH  30  32
ENDBRANCH  29  30
ENDBRANCH   5  29
ENDBRANCH   1   5
BRANCH   3  34
ATOM     34  CA  ALA A   4      21.339   8.747  -8.149  1.00  0.00     0.168 C 
ATOM     35  CB  ALA A   4      20.663   8.005  -9.293  1.00  0.00     0.041 C 
BRANCH  34  36
ATOM     36  C   ALA A   4      22.707   9.199  -8.528  1.00  0.00     0.242 C 
ATOM     37  N   ARG A   5      23.816   8.706  -7.790  1.00  0.00    -0.343 N 
ATOM     38  O   ALA A   4      22.873  10.026  -9.467  1.00  0.00    -0.273 OA
ATOM     39  H   UNL     1      23.662   7.984  -7.049  1.00  0.00     0.164 HD
BRANCH  37  40
ATOM     40  CA  ARG A   5      25.180   9.117  -8.072  1.00  0.00     0.171 C 
BRANCH  40  41
ATOM     41  C   ARG A   5      25.901   7.967  -8.686  1.00  0.00     0.243 C 
ATOM     42  N   ASN A   6      25.916   7.866 -10.103  1.00  0.00    -0.341 N 
ATOM     43  O   ARG A   5      26.449   7.087  -7.970  1.00  0.00    -0.273 OA
ATOM     44  H   UNL     1      25.496   8.651 -10.651  1.00  0.00     0.164 HD
BRANCH  42  45
ATOM     45  CA  ASN A   6      26.543   6.751 -10.804  1.00  0.00     0.201 C 
BRANCH  45  46
ATOM     46  C   ASN A   6      27.994   6.642 -10.417  1.00  0.00     0.326 C 
ATOM     47  O   ASN A   6      28.795   7.579 -10.677  1.00  0.00    -0.250 OA
BRANCH  46  48
ATOM     48  OXT ASN A   6      28.453   5.497  -9.772  1.00  0.00    -0.480 OA
ATOM     49  H   UNL     1      29.426   5.407  -9.504  1.00  0.00     0.296 HD
ENDBRANCH  46  48
ENDBRANCH  45  46
BRANCH  45  50
ATOM     50  CB  ASN A   6      26.424   6.946 -12.323  1.00  0.00     0.136 C 
BRANCH  50  51
ATOM     51  CG  ASN A   6      25.009   7.181 -12.772  1.00  0.00     0.220 C 
ATOM     52  ND2 ASN A   6      24.753   8.089 -13.834  1.00  0.00    -0.370 N 
ATOM     53  OD1 ASN A   6      24.051   6.563 -12.238  1.00  0.00    -0.275 OA
ATOM     54  H   UNL     1      23.775   8.258 -14.156  1.00  0.00     0.159 HD
ATOM     55  H   UNL     1      25.533   8.595 -14.309  1.00  0.00     0.159 HD
ENDBRANCH  50  51
ENDBRANCH  45  50
ENDBRANCH  42  45
ENDBRANCH  40  41
BRANCH  40  56
ATOM     56  CB  ARG A   5      25.855   9.600  -6.794  1.00  0.00     0.037 C 
BRANCH  56  57
ATOM     57  CG  ARG A   5      25.164  10.859  -6.272  1.00  0.00     0.024 C 
BRANCH  57  58
ATOM     58  CD  ARG A   5      25.839  11.390  -5.016  1.00  0.00     0.116 C 
BRANCH  58  59
ATOM     59  NE  ARG A   5      25.376  10.684  -3.823  1.00  0.00    -0.357 N 
ATOM     60  CZ  ARG A   5      25.468  11.279  -2.527  1.00  0.00     0.185 C 
ATOM     61  NH2 ARG A   5      26.106  12.541  -2.350  1.00  0.00    -0.370 N 
ATOM     62  H   UNL     1      24.898   9.759  -3.921  1.00  0.00     0.163 HD
ATOM     63  H   UNL     1      26.085  13.006  -1.415  1.00  0.00     0.159 HD
ATOM     64  H   UNL     1      26.692  12.982  -3.091  1.00  0.00     0.159 HD
BRANCH  60  65
ATOM     65  NH1 ARG A   5      24.958  10.679  -1.500  1.00  0.00    -0.270 NA
ATOM     66  H   UNL     1      24.476   9.756  -1.583  1.00  0.00     0.191 HD
ENDBRANCH  60  65
ENDBRANCH  58  59
ENDBRANCH  57  58
ENDBRANCH  56  57
ENDBRANCH  40  56
ENDBRANCH  37  40
ENDBRANCH  34  36
ENDBRANCH   3  34
TORSDOF 27
