REMARK SMILES CC(C)C[C@H](NC(=O)[C@H](Cc1ccccc1)NC(=O)[C@@H](N)CO)C(=O)N[C@@H](CO)C(=O)N[C@@H](CCCNC(=N)N)C(=O)N[C@@H](CCCNC(=N)N)C(=O)O
REMARK SMILES IDX 30 1 31 2 32 3 27 5 26 6 24 7 25 8 5 10 6 11 7 12 8 13 9 15
REMARK SMILES IDX 17 16 18 17 19 18 20 20 21 21 22 24 23 25 10 27 11 28 12 29
REMARK SMILES IDX 16 30 13 31 15 32 14 33 4 34 2 35 1 36 3 37 28 38 29 39
REMARK SMILES IDX 33 41 41 42 43 43 42 44 44 46 52 47 53 48 54 49 45 51 46 52
REMARK SMILES IDX 47 53 48 54 49 55 51 56 50 60 34 62 35 63 36 64 37 65 38 66
REMARK SMILES IDX 40 67 39 71
REMARK H PARENT 32 4 26 9 6 14 17 19 21 22 21 23 23 26 29 40 43 45 54 50 48 57
REMARK H PARENT 51 58 51 59 50 61 37 68 40 69 40 70 39 72
ROOT
ATOM      1  C   SER A   4       2.010   0.132   0.126  1.00  0.00     0.245 C 
ATOM      2  O   SER A   4       2.485  -0.707   0.943  1.00  0.00    -0.273 OA
ATOM      3  N   ARG A   5       2.709   0.423  -1.098  1.00  0.00    -0.342 N 
ATOM      4  H   UNL     1       2.343   1.181  -1.716  1.00  0.00     0.164 HD
ENDROOT
BRANCH   1   5
ATOM      5  CA  SER A   4       0.732   0.857   0.459  1.00  0.00     0.197 C 
BRANCH   5   6
ATOM      6  N   SER A   4      -0.289  -0.106   0.883  1.00  0.00    -0.340 N 
ATOM      7  C   LEU A   3      -1.621  -0.128   0.347  1.00  0.00     0.243 C 
ATOM      8  O   LEU A   3      -1.979   0.726  -0.510  1.00  0.00    -0.273 OA
ATOM      9  H   UNL     1      -0.060  -0.751   1.672  1.00  0.00     0.164 HD
BRANCH   7  10
ATOM     10  CA  LEU A   3      -2.595  -1.176   0.821  1.00  0.00     0.171 C 
BRANCH  10  11
ATOM     11  N   LEU A   3      -3.958  -0.890   0.355  1.00  0.00    -0.343 N 
ATOM     12  C   PHE A   2      -4.825   0.023   1.046  1.00  0.00     0.243 C 
ATOM     13  O   PHE A   2      -4.407   0.655   2.057  1.00  0.00    -0.273 OA
ATOM     14  H   UNL     1      -4.275  -1.243  -0.576  1.00  0.00     0.164 HD
BRANCH  12  15
ATOM     15  CA  PHE A   2      -6.217   0.270   0.527  1.00  0.00     0.175 C 
BRANCH  15  16
ATOM     16  N   PHE A   2      -7.118   0.605   1.635  1.00  0.00    -0.343 N 
ATOM     17  C   SER A   1      -8.349  -0.094   1.879  1.00  0.00     0.239 C 
ATOM     18  O   SER A   1      -8.588  -1.187   1.297  1.00  0.00    -0.273 OA
ATOM     19  H   UNL     1      -6.914   1.462   2.198  1.00  0.00     0.164 HD
BRANCH  17  20
ATOM     20  CA  SER A   1      -9.330   0.451   2.890  1.00  0.00     0.167 C 
BRANCH  20  21
ATOM     21  N   SER A   1     -10.711   0.279   2.435  1.00  0.00    -0.318 NA
ATOM     22  H   UNL     1     -10.914  -0.738   2.292  1.00  0.00     0.119 HD
ATOM     23  H   UNL     1     -10.820   0.753   1.507  1.00  0.00     0.119 HD
ENDBRANCH  20  21
BRANCH  20  24
ATOM     24  CB  SER A   1      -9.121  -0.232   4.249  1.00  0.00     0.184 C 
BRANCH  24  25
ATOM     25  OG  SER A   1      -9.942   0.348   5.226  1.00  0.00    -0.394 OA
ATOM     26  H   UNL     1     -10.824  -0.105   5.164  1.00  0.00     0.210 HD
ENDBRANCH  24  25
ENDBRANCH  20  24
ENDBRANCH  17  20
ENDBRANCH  15  16
BRANCH  15  27
ATOM     27  CB  PHE A   2      -6.198   1.411  -0.502  1.00  0.00     0.070 C 
BRANCH  27  28
ATOM     28  CG  PHE A   2      -7.555   1.604  -1.131  1.00  0.00    -0.045 A 
ATOM     29  CD1 PHE A   2      -7.930   0.843  -2.251  1.00  0.00     0.004 A 
ATOM     30  CD2 PHE A   2      -8.480   2.499  -0.566  1.00  0.00     0.004 A 
ATOM     31  CE1 PHE A   2      -9.206   0.985  -2.803  1.00  0.00     0.000 A 
ATOM     32  CE2 PHE A   2      -9.758   2.636  -1.118  1.00  0.00     0.000 A 
ATOM     33  CZ  PHE A   2     -10.120   1.880  -2.236  1.00  0.00     0.000 A 
ENDBRANCH  27  28
ENDBRANCH  15  27
ENDBRANCH  12  15
ENDBRANCH  10  11
BRANCH  10  34
ATOM     34  CB  LEU A   3      -2.154  -2.621   0.468  1.00  0.00     0.038 C 
BRANCH  34  35
ATOM     35  CG  LEU A   3      -2.065  -3.007  -1.037  1.00  0.00    -0.015 C 
ATOM     36  CD1 LEU A   3      -0.889  -2.330  -1.763  1.00  0.00     0.007 C 
ATOM     37  CD2 LEU A   3      -1.923  -4.532  -1.162  1.00  0.00     0.007 C 
ENDBRANCH  34  35
ENDBRANCH  10  34
ENDBRANCH   7  10
ENDBRANCH   5   6
BRANCH   5  38
ATOM     38  CB  SER A   4       0.978   1.884   1.570  1.00  0.00     0.191 C 
BRANCH  38  39
ATOM     39  OG  SER A   4      -0.200   2.592   1.854  1.00  0.00    -0.394 OA
ATOM     40  H   UNL     1      -0.319   3.253   1.123  1.00  0.00     0.210 HD
ENDBRANCH  38  39
ENDBRANCH   5  38
ENDBRANCH   1   5
BRANCH   3  41
ATOM     41  CA  ARG A   5       4.016  -0.165  -1.402  1.00  0.00     0.171 C 
BRANCH  41  42
ATOM     42  C   ARG A   5       5.092   0.613  -0.695  1.00  0.00     0.243 C 
ATOM     43  N   ARG A   6       6.186  -0.072  -0.063  1.00  0.00    -0.341 N 
ATOM     44  O   ARG A   5       5.057   1.873  -0.709  1.00  0.00    -0.273 OA
ATOM     45  H   UNL     1       6.217  -1.115  -0.115  1.00  0.00     0.164 HD
BRANCH  43  46
ATOM     46  CA  ARG A   6       7.323   0.654   0.514  1.00  0.00     0.192 C 
BRANCH  46  47
ATOM     47  C   ARG A   6       8.249   1.087  -0.583  1.00  0.00     0.326 C 
ATOM     48  O   ARG A   6       8.566   0.282  -1.501  1.00  0.00    -0.250 OA
BRANCH  47  49
ATOM     49  OXT ARG A   6       8.784   2.371  -0.570  1.00  0.00    -0.480 OA
ATOM     50  H   UNL     1       9.415   2.679  -1.300  1.00  0.00     0.296 HD
ENDBRANCH  47  49
ENDBRANCH  46  47
BRANCH  46  51
ATOM     51  CB  ARG A   6       8.085  -0.220   1.526  1.00  0.00     0.039 C 
BRANCH  51  52
ATOM     52  CG  ARG A   6       7.219  -0.559   2.749  1.00  0.00     0.024 C 
BRANCH  52  53
ATOM     53  CD  ARG A   6       7.985  -1.418   3.765  1.00  0.00     0.116 C 
BRANCH  53  54
ATOM     54  NE  ARG A   6       9.087  -0.669   4.373  1.00  0.00    -0.357 N 
ATOM     55  CZ  ARG A   6       8.931   0.363   5.367  1.00  0.00     0.185 C 
ATOM     56  NH2 ARG A   6      10.082   1.070   5.824  1.00  0.00    -0.370 N 
ATOM     57  H   UNL     1      10.058  -0.919   4.074  1.00  0.00     0.163 HD
ATOM     58  H   UNL     1      11.027   0.847   5.439  1.00  0.00     0.159 HD
ATOM     59  H   UNL     1       9.991   1.830   6.537  1.00  0.00     0.159 HD
BRANCH  55  60
ATOM     60  NH1 ARG A   6       7.770   0.652   5.873  1.00  0.00    -0.270 NA
ATOM     61  H   UNL     1       6.882   0.178   5.602  1.00  0.00     0.191 HD
ENDBRANCH  55  60
ENDBRANCH  53  54
ENDBRANCH  52  53
ENDBRANCH  51  52
ENDBRANCH  46  51
ENDBRANCH  43  46
ENDBRANCH  41  42
BRANCH  41  62
ATOM     62  CB  ARG A   5       4.283  -0.158  -2.918  1.00  0.00     0.037 C 
BRANCH  62  63
ATOM     63  CG  ARG A   5       3.262  -1.016  -3.685  1.00  0.00     0.024 C 
BRANCH  63  64
ATOM     64  CD  ARG A   5       3.621  -1.158  -5.171  1.00  0.00     0.116 C 
BRANCH  64  65
ATOM     65  NE  ARG A   5       3.544   0.136  -5.854  1.00  0.00    -0.357 N 
ATOM     66  CZ  ARG A   5       4.664   1.013  -6.077  1.00  0.00     0.185 C 
ATOM     67  NH2 ARG A   5       4.446   2.422  -6.141  1.00  0.00    -0.370 N 
ATOM     68  H   UNL     1       2.591   0.548  -5.960  1.00  0.00     0.163 HD
ATOM     69  H   UNL     1       5.243   3.075  -6.314  1.00  0.00     0.159 HD
ATOM     70  H   UNL     1       3.490   2.819  -6.006  1.00  0.00     0.159 HD
BRANCH  66  71
ATOM     71  NH1 ARG A   5       5.864   0.555  -6.264  1.00  0.00    -0.270 NA
ATOM     72  H   UNL     1       6.107  -0.458  -6.269  1.00  0.00     0.191 HD
ENDBRANCH  66  71
ENDBRANCH  64  65
ENDBRANCH  63  64
ENDBRANCH  62  63
ENDBRANCH  41  62
ENDBRANCH   3  41
TORSDOF 31
