REMARK SMILES CC(C)C[C@H](NC(=O)[C@H](Cc1ccccc1)NC(=O)[C@@H](N)CO)C(=O)N[C@@H](CC(N)=O)C(=O)N[C@@H](CCCNC(=N)N)C(=O)N[C@@H](Cc1c[nH]cn1)C(=O)O
REMARK SMILES IDX 24 1 25 2 26 3 5 5 6 6 7 7 8 8 9 10 17 11 18 12 19 13 20 15
REMARK SMILES IDX 21 16 22 19 23 20 10 22 11 23 12 24 16 25 13 26 15 27 14 28
REMARK SMILES IDX 4 29 2 30 1 31 3 32 27 33 32 34 34 35 33 36 35 38 43 39
REMARK SMILES IDX 45 40 44 41 46 43 53 44 54 45 55 46 47 48 48 49 52 50 49 51
REMARK SMILES IDX 51 52 50 53 36 55 37 56 38 57 39 58 40 59 42 60 41 64 28 66
REMARK SMILES IDX 29 67 30 68 31 69
REMARK H PARENT 26 4 6 9 17 14 21 17 21 18 23 21 34 37 45 42 55 47 50 54 39 61
REMARK H PARENT 42 62 42 63 41 65 30 70 30 71
ROOT
ATOM      1  C   LEU A   3      20.054  10.081  -6.478  1.00  0.00     0.243 C 
ATOM      2  O   LEU A   3      20.167   9.158  -5.624  1.00  0.00    -0.273 OA
ATOM      3  N   ASN A   4      20.565   9.910  -7.788  1.00  0.00    -0.342 N 
ATOM      4  H   UNL     1      20.400  10.650  -8.508  1.00  0.00     0.164 HD
ENDROOT
BRANCH   1   5
ATOM      5  CA  LEU A   3      19.341  11.352  -6.148  1.00  0.00     0.171 C 
BRANCH   5   6
ATOM      6  N   LEU A   3      18.084  11.019  -5.538  1.00  0.00    -0.343 N 
ATOM      7  C   PHE A   2      16.887  11.744  -5.776  1.00  0.00     0.243 C 
ATOM      8  O   PHE A   2      16.906  12.795  -6.474  1.00  0.00    -0.273 OA
ATOM      9  H   UNL     1      18.156  10.385  -4.719  1.00  0.00     0.164 HD
BRANCH   7  10
ATOM     10  CA  PHE A   2      15.653  11.312  -5.056  1.00  0.00     0.175 C 
BRANCH  10  11
ATOM     11  N   PHE A   2      14.456  11.739  -5.766  1.00  0.00    -0.343 N 
ATOM     12  C   SER A   1      13.919  13.049  -5.633  1.00  0.00     0.239 C 
ATOM     13  O   SER A   1      14.449  13.867  -4.832  1.00  0.00    -0.273 OA
ATOM     14  H   UNL     1      13.869  11.000  -6.212  1.00  0.00     0.164 HD
BRANCH  12  15
ATOM     15  CA  SER A   1      12.662  13.410  -6.386  1.00  0.00     0.167 C 
BRANCH  15  16
ATOM     16  N   SER A   1      12.455  14.860  -6.398  1.00  0.00    -0.318 NA
ATOM     17  H   UNL     1      12.286  15.190  -5.420  1.00  0.00     0.119 HD
ATOM     18  H   UNL     1      13.316  15.337  -6.755  1.00  0.00     0.119 HD
ENDBRANCH  15  16
BRANCH  15  19
ATOM     19  CB  SER A   1      12.690  12.886  -7.840  1.00  0.00     0.184 C 
BRANCH  19  20
ATOM     20  OG  SER A   1      11.438  13.053  -8.445  1.00  0.00    -0.394 OA
ATOM     21  H   UNL     1      10.839  12.361  -8.060  1.00  0.00     0.210 HD
ENDBRANCH  19  20
ENDBRANCH  15  19
ENDBRANCH  12  15
ENDBRANCH  10  11
BRANCH  10  22
ATOM     22  CB  PHE A   2      15.610   9.772  -4.880  1.00  0.00     0.070 C 
BRANCH  22  23
ATOM     23  CG  PHE A   2      14.435   9.292  -4.092  1.00  0.00    -0.045 A 
ATOM     24  CD1 PHE A   2      13.898  10.048  -3.033  1.00  0.00     0.004 A 
ATOM     25  CD2 PHE A   2      13.964   7.991  -4.310  1.00  0.00     0.004 A 
ATOM     26  CE1 PHE A   2      12.866   9.535  -2.258  1.00  0.00     0.000 A 
ATOM     27  CE2 PHE A   2      12.937   7.477  -3.520  1.00  0.00     0.000 A 
ATOM     28  CZ  PHE A   2      12.384   8.252  -2.500  1.00  0.00     0.000 A 
ENDBRANCH  22  23
ENDBRANCH  10  22
ENDBRANCH   7  10
ENDBRANCH   5   6
BRANCH   5  29
ATOM     29  CB  LEU A   3      20.165  12.251  -5.216  1.00  0.00     0.038 C 
BRANCH  29  30
ATOM     30  CG  LEU A   3      20.417  11.679  -3.791  1.00  0.00    -0.015 C 
ATOM     31  CD1 LEU A   3      21.819  12.066  -3.316  1.00  0.00     0.007 C 
ATOM     32  CD2 LEU A   3      19.369  12.169  -2.781  1.00  0.00     0.007 C 
ENDBRANCH  29  30
ENDBRANCH   5  29
ENDBRANCH   1   5
BRANCH   3  33
ATOM     33  CA  ASN A   4      21.349   8.747  -8.157  1.00  0.00     0.180 C 
BRANCH  33  34
ATOM     34  C   ASN A   4      22.715   9.208  -8.528  1.00  0.00     0.243 C 
ATOM     35  N   ARG A   5      23.821   8.713  -7.788  1.00  0.00    -0.343 N 
ATOM     36  O   ASN A   4      22.881  10.032  -9.468  1.00  0.00    -0.273 OA
ATOM     37  H   UNL     1      23.664   7.992  -7.046  1.00  0.00     0.164 HD
BRANCH  35  38
ATOM     38  CA  ARG A   5      25.185   9.118  -8.070  1.00  0.00     0.171 C 
BRANCH  38  39
ATOM     39  C   ARG A   5      25.900   7.966  -8.686  1.00  0.00     0.243 C 
ATOM     40  N   HIS A   6      25.905   7.866 -10.103  1.00  0.00    -0.341 N 
ATOM     41  O   ARG A   5      26.450   7.084  -7.973  1.00  0.00    -0.273 OA
ATOM     42  H   UNL     1      25.487   8.658 -10.641  1.00  0.00     0.164 HD
BRANCH  40  43
ATOM     43  CA  HIS A   6      26.532   6.762 -10.821  1.00  0.00     0.198 C 
BRANCH  43  44
ATOM     44  C   HIS A   6      27.982   6.643 -10.426  1.00  0.00     0.326 C 
ATOM     45  O   HIS A   6      28.790   7.576 -10.678  1.00  0.00    -0.250 OA
BRANCH  44  46
ATOM     46  OXT HIS A   6      28.431   5.493  -9.783  1.00  0.00    -0.480 OA
ATOM     47  H   UNL     1      29.401   5.396  -9.510  1.00  0.00     0.296 HD
ENDBRANCH  44  46
ENDBRANCH  43  44
BRANCH  43  48
ATOM     48  CB  HIS A   6      26.423   6.992 -12.338  1.00  0.00     0.094 C 
BRANCH  48  49
ATOM     49  CG  HIS A   6      24.999   7.147 -12.795  1.00  0.00     0.061 A 
ATOM     50  ND1 HIS A   6      24.160   6.113 -13.002  1.00  0.00    -0.242 NA
ATOM     51  CD2 HIS A   6      24.370   8.331 -13.114  1.00  0.00     0.107 A 
ATOM     52  CE1 HIS A   6      23.029   6.699 -13.449  1.00  0.00     0.196 A 
ATOM     53  NE2 HIS A   6      23.126   8.039 -13.521  1.00  0.00    -0.351 N 
ATOM     54  H   UNL     1      22.392   8.710 -13.837  1.00  0.00     0.167 HD
ENDBRANCH  48  49
ENDBRANCH  43  48
ENDBRANCH  40  43
ENDBRANCH  38  39
BRANCH  38  55
ATOM     55  CB  ARG A   5      25.859   9.600  -6.791  1.00  0.00     0.037 C 
BRANCH  55  56
ATOM     56  CG  ARG A   5      25.164  10.857  -6.269  1.00  0.00     0.024 C 
BRANCH  56  57
ATOM     57  CD  ARG A   5      25.839  11.390  -5.013  1.00  0.00     0.116 C 
BRANCH  57  58
ATOM     58  NE  ARG A   5      25.378  10.686  -3.820  1.00  0.00    -0.357 N 
ATOM     59  CZ  ARG A   5      25.469  11.281  -2.526  1.00  0.00     0.185 C 
ATOM     60  NH2 ARG A   5      26.107  12.546  -2.352  1.00  0.00    -0.370 N 
ATOM     61  H   UNL     1      24.894   9.763  -3.911  1.00  0.00     0.163 HD
ATOM     62  H   UNL     1      26.697  12.982  -3.093  1.00  0.00     0.159 HD
ATOM     63  H   UNL     1      26.080  13.024  -1.423  1.00  0.00     0.159 HD
BRANCH  59  64
ATOM     64  NH1 ARG A   5      24.954  10.672  -1.506  1.00  0.00    -0.270 NA
ATOM     65  H   UNL     1      24.995  11.077  -0.545  1.00  0.00     0.191 HD
ENDBRANCH  59  64
ENDBRANCH  57  58
ENDBRANCH  56  57
ENDBRANCH  55  56
ENDBRANCH  38  55
ENDBRANCH  35  38
ENDBRANCH  33  34
BRANCH  33  66
ATOM     66  CB  ASN A   4      20.667   7.999  -9.306  1.00  0.00     0.134 C 
BRANCH  66  67
ATOM     67  CG  ASN A   4      21.413   6.765  -9.750  1.00  0.00     0.220 C 
ATOM     68  ND2 ASN A   4      21.071   6.144 -10.988  1.00  0.00    -0.370 N 
ATOM     69  OD1 ASN A   4      22.279   6.228  -9.009  1.00  0.00    -0.275 OA
ATOM     70  H   UNL     1      20.341   6.559 -11.608  1.00  0.00     0.159 HD
ATOM     71  H   UNL     1      21.540   5.258 -11.278  1.00  0.00     0.159 HD
ENDBRANCH  66  67
ENDBRANCH  33  66
ENDBRANCH   3  33
TORSDOF 28
