REMARK SMILES CC(C)C[C@H](NC(=O)[C@@H](NC(=O)[C@@H](N)CO)C(C)C)C(=O)N[C@@H](CC(N)=O)C(=O)N[C@@H](CCCNC(=N)N)C(=O)N[C@@H](CC(N)=O)C(=O)O
REMARK SMILES IDX 20 1 21 2 22 3 5 5 6 6 7 7 8 8 9 10 10 11 11 12 12 13 13 15
REMARK SMILES IDX 14 16 15 19 16 20 17 22 18 23 19 24 4 25 2 26 1 27 3 28
REMARK SMILES IDX 23 29 28 30 30 31 29 32 31 34 39 35 41 36 40 37 42 39 47 40
REMARK SMILES IDX 48 41 49 42 43 44 44 45 45 46 46 47 32 50 33 51 34 52 35 53
REMARK SMILES IDX 36 54 38 55 37 59 24 61 25 62 26 63 27 64
REMARK H PARENT 22 4 6 9 10 14 14 17 14 18 16 21 30 33 41 38 49 43 45 48 45 49
REMARK H PARENT 35 56 38 57 38 58 37 60 26 65 26 66
ROOT
ATOM      1  C   LEU A   3      20.046  10.081  -6.473  1.00  0.00     0.243 C 
ATOM      2  O   LEU A   3      20.161   9.157  -5.621  1.00  0.00    -0.273 OA
ATOM      3  N   ASN A   4      20.567   9.915  -7.781  1.00  0.00    -0.342 N 
ATOM      4  H   UNL     1      20.405  10.659  -8.499  1.00  0.00     0.164 HD
ENDROOT
BRANCH   1   5
ATOM      5  CA  LEU A   3      19.331  11.351  -6.139  1.00  0.00     0.171 C 
BRANCH   5   6
ATOM      6  N   LEU A   3      18.076  11.020  -5.518  1.00  0.00    -0.343 N 
ATOM      7  C   VAL A   2      16.876  11.744  -5.745  1.00  0.00     0.243 C 
ATOM      8  O   VAL A   2      16.891  12.793  -6.449  1.00  0.00    -0.273 OA
ATOM      9  H   UNL     1      18.143  10.365  -4.714  1.00  0.00     0.164 HD
BRANCH   7  10
ATOM     10  CA  VAL A   2      15.623  11.275  -5.055  1.00  0.00     0.173 C 
BRANCH  10  11
ATOM     11  N   VAL A   2      14.438  11.731  -5.767  1.00  0.00    -0.343 N 
ATOM     12  C   SER A   1      13.918  13.048  -5.634  1.00  0.00     0.239 C 
ATOM     13  O   SER A   1      14.455  13.861  -4.833  1.00  0.00    -0.273 OA
ATOM     14  H   UNL     1      13.825  11.016  -6.209  1.00  0.00     0.164 HD
BRANCH  12  15
ATOM     15  CA  SER A   1      12.663  13.415  -6.388  1.00  0.00     0.167 C 
BRANCH  15  16
ATOM     16  N   SER A   1      12.457  14.865  -6.395  1.00  0.00    -0.318 NA
ATOM     17  H   UNL     1      13.320  15.341  -6.750  1.00  0.00     0.119 HD
ATOM     18  H   UNL     1      12.289  15.191  -5.416  1.00  0.00     0.119 HD
ENDBRANCH  15  16
BRANCH  15  19
ATOM     19  CB  SER A   1      12.691  12.896  -7.844  1.00  0.00     0.184 C 
BRANCH  19  20
ATOM     20  OG  SER A   1      11.436  13.053  -8.445  1.00  0.00    -0.394 OA
ATOM     21  H   UNL     1      10.846  12.352  -8.063  1.00  0.00     0.210 HD
ENDBRANCH  19  20
ENDBRANCH  15  19
ENDBRANCH  12  15
ENDBRANCH  10  11
BRANCH  10  22
ATOM     22  CB  VAL A   2      15.585   9.721  -4.892  1.00  0.00     0.015 C 
ATOM     23  CG1 VAL A   2      14.379   9.267  -4.077  1.00  0.00     0.010 C 
ATOM     24  CG2 VAL A   2      15.664   8.945  -6.223  1.00  0.00     0.010 C 
ENDBRANCH  10  22
ENDBRANCH   7  10
ENDBRANCH   5   6
BRANCH   5  25
ATOM     25  CB  LEU A   3      20.162  12.250  -5.215  1.00  0.00     0.038 C 
BRANCH  25  26
ATOM     26  CG  LEU A   3      20.417  11.679  -3.791  1.00  0.00    -0.015 C 
ATOM     27  CD1 LEU A   3      21.819  12.067  -3.318  1.00  0.00     0.007 C 
ATOM     28  CD2 LEU A   3      19.369  12.169  -2.780  1.00  0.00     0.007 C 
ENDBRANCH  25  26
ENDBRANCH   5  25
ENDBRANCH   1   5
BRANCH   3  29
ATOM     29  CA  ASN A   4      21.346   8.748  -8.152  1.00  0.00     0.180 C 
BRANCH  29  30
ATOM     30  C   ASN A   4      22.712   9.204  -8.531  1.00  0.00     0.243 C 
ATOM     31  N   ARG A   5      23.819   8.711  -7.791  1.00  0.00    -0.343 N 
ATOM     32  O   ASN A   4      22.877  10.028  -9.471  1.00  0.00    -0.273 OA
ATOM     33  H   UNL     1      23.665   7.986  -7.053  1.00  0.00     0.164 HD
BRANCH  31  34
ATOM     34  CA  ARG A   5      25.182   9.120  -8.072  1.00  0.00     0.171 C 
BRANCH  34  35
ATOM     35  C   ARG A   5      25.901   7.969  -8.686  1.00  0.00     0.243 C 
ATOM     36  N   ASN A   6      25.914   7.866 -10.103  1.00  0.00    -0.341 N 
ATOM     37  O   ARG A   5      26.449   7.088  -7.970  1.00  0.00    -0.273 OA
ATOM     38  H   UNL     1      25.490   8.649 -10.651  1.00  0.00     0.164 HD
BRANCH  36  39
ATOM     39  CA  ASN A   6      26.544   6.752 -10.805  1.00  0.00     0.201 C 
BRANCH  39  40
ATOM     40  C   ASN A   6      27.994   6.643 -10.415  1.00  0.00     0.326 C 
ATOM     41  O   ASN A   6      28.796   7.579 -10.676  1.00  0.00    -0.250 OA
BRANCH  40  42
ATOM     42  OXT ASN A   6      28.451   5.500  -9.766  1.00  0.00    -0.480 OA
ATOM     43  H   UNL     1      29.423   5.410  -9.496  1.00  0.00     0.296 HD
ENDBRANCH  40  42
ENDBRANCH  39  40
BRANCH  39  44
ATOM     44  CB  ASN A   6      26.430   6.950 -12.324  1.00  0.00     0.136 C 
BRANCH  44  45
ATOM     45  CG  ASN A   6      25.017   7.181 -12.776  1.00  0.00     0.220 C 
ATOM     46  ND2 ASN A   6      24.757   8.092 -13.834  1.00  0.00    -0.370 N 
ATOM     47  OD1 ASN A   6      24.063   6.553 -12.249  1.00  0.00    -0.275 OA
ATOM     48  H   UNL     1      23.777   8.256 -14.158  1.00  0.00     0.159 HD
ATOM     49  H   UNL     1      25.534   8.607 -14.305  1.00  0.00     0.159 HD
ENDBRANCH  44  45
ENDBRANCH  39  44
ENDBRANCH  36  39
ENDBRANCH  34  35
BRANCH  34  50
ATOM     50  CB  ARG A   5      25.857   9.602  -6.792  1.00  0.00     0.037 C 
BRANCH  50  51
ATOM     51  CG  ARG A   5      25.174  10.866  -6.268  1.00  0.00     0.024 C 
BRANCH  51  52
ATOM     52  CD  ARG A   5      25.852  11.381  -5.003  1.00  0.00     0.116 C 
BRANCH  52  53
ATOM     53  NE  ARG A   5      25.363  10.678  -3.820  1.00  0.00    -0.357 N 
ATOM     54  CZ  ARG A   5      25.463  11.274  -2.528  1.00  0.00     0.185 C 
ATOM     55  NH2 ARG A   5      26.092  12.543  -2.385  1.00  0.00    -0.370 N 
ATOM     56  H   UNL     1      24.874   9.759  -3.920  1.00  0.00     0.163 HD
ATOM     57  H   UNL     1      26.168  13.005  -1.451  1.00  0.00     0.159 HD
ATOM     58  H   UNL     1      26.168  13.005  -1.451  1.00  0.00     0.159 HD
BRANCH  54  59
ATOM     59  NH1 ARG A   5      24.968  10.678  -1.491  1.00  0.00    -0.270 NA
ATOM     60  H   UNL     1      24.492   9.751  -1.565  1.00  0.00     0.191 HD
ENDBRANCH  54  59
ENDBRANCH  52  53
ENDBRANCH  51  52
ENDBRANCH  50  51
ENDBRANCH  34  50
ENDBRANCH  31  34
ENDBRANCH  29  30
BRANCH  29  61
ATOM     61  CB  ASN A   4      20.646   7.996  -9.286  1.00  0.00     0.134 C 
BRANCH  61  62
ATOM     62  CG  ASN A   4      21.415   6.790  -9.756  1.00  0.00     0.220 C 
ATOM     63  ND2 ASN A   4      21.823   5.770  -8.843  1.00  0.00    -0.370 N 
ATOM     64  OD1 ASN A   4      21.645   6.648 -10.985  1.00  0.00    -0.275 OA
ATOM     65  H   UNL     1      22.369   4.949  -9.185  1.00  0.00     0.159 HD
ATOM     66  H   UNL     1      21.553   5.807  -7.835  1.00  0.00     0.159 HD
ENDBRANCH  61  62
ENDBRANCH  29  61
ENDBRANCH   3  29
TORSDOF 27
