REMARK SMILES CC(C)C[C@H](NC(=O)[C@H](Cc1ccccc1)NC(=O)[C@H](C)N)C(=O)N[C@@H](Cc1c[nH]cn1)C(=O)N[C@@H](CCCNC(=N)N)C(=O)N[C@@H](CC(N)=O)C(=O)O
REMARK SMILES IDX 26 1 25 2 23 3 24 4 5 6 6 7 7 8 8 9 9 11 17 12 18 13 19 14
REMARK SMILES IDX 20 16 21 17 22 18 10 21 11 22 12 23 16 24 13 25 15 26 14 27
REMARK SMILES IDX 4 28 2 29 1 30 3 31 33 32 35 33 34 34 36 36 44 37 46 38
REMARK SMILES IDX 45 39 47 41 52 42 53 43 54 44 48 46 49 47 50 48 51 49 37 52
REMARK SMILES IDX 38 53 39 54 40 55 41 56 43 57 42 61 27 63 28 64 32 65 29 66
REMARK SMILES IDX 31 67 30 68
REMARK H PARENT 25 5 6 10 17 15 22 19 22 20 35 35 46 40 54 45 50 50 50 51
REMARK H PARENT 40 58 43 59 43 60 42 62 30 69
ROOT
ATOM      1  CA  HIS A   4      21.348   8.746  -8.159  1.00  0.00     0.177 C 
ENDROOT
BRANCH   1   2
ATOM      2  N   HIS A   4      20.565   9.909  -7.788  1.00  0.00    -0.342 N 
ATOM      3  C   LEU A   3      20.055  10.080  -6.477  1.00  0.00     0.243 C 
ATOM      4  O   LEU A   3      20.168   9.157  -5.624  1.00  0.00    -0.273 OA
ATOM      5  H   UNL     1      20.401  10.651  -8.507  1.00  0.00     0.164 HD
BRANCH   3   6
ATOM      6  CA  LEU A   3      19.342  11.351  -6.147  1.00  0.00     0.171 C 
BRANCH   6   7
ATOM      7  N   LEU A   3      18.084  11.018  -5.537  1.00  0.00    -0.343 N 
ATOM      8  C   PHE A   2      16.890  11.745  -5.777  1.00  0.00     0.243 C 
ATOM      9  O   PHE A   2      16.911  12.797  -6.474  1.00  0.00    -0.273 OA
ATOM     10  H   UNL     1      18.154  10.384  -4.717  1.00  0.00     0.164 HD
BRANCH   8  11
ATOM     11  CA  PHE A   2      15.650  11.314  -5.066  1.00  0.00     0.175 C 
BRANCH  11  12
ATOM     12  N   PHE A   2      14.467  11.749  -5.794  1.00  0.00    -0.343 N 
ATOM     13  C   ALA A   1      13.909  13.048  -5.625  1.00  0.00     0.237 C 
ATOM     14  O   ALA A   1      14.438  13.856  -4.813  1.00  0.00    -0.273 OA
ATOM     15  H   UNL     1      14.015  11.070  -6.445  1.00  0.00     0.164 HD
BRANCH  13  16
ATOM     16  CA  ALA A   1      12.658  13.425  -6.378  1.00  0.00     0.138 C 
ATOM     17  CB  ALA A   1      12.677  12.895  -7.820  1.00  0.00     0.035 C 
BRANCH  16  18
ATOM     18  N   ALA A   1      12.475  14.876  -6.402  1.00  0.00    -0.320 NA
ATOM     19  H   UNL     1      12.320  15.219  -5.426  1.00  0.00     0.119 HD
ATOM     20  H   UNL     1      13.341  15.333  -6.772  1.00  0.00     0.119 HD
ENDBRANCH  16  18
ENDBRANCH  13  16
ENDBRANCH  11  12
BRANCH  11  21
ATOM     21  CB  PHE A   2      15.601   9.776  -4.892  1.00  0.00     0.070 C 
BRANCH  21  22
ATOM     22  CG  PHE A   2      14.430   9.296  -4.098  1.00  0.00    -0.045 A 
ATOM     23  CD1 PHE A   2      13.896  10.050  -3.037  1.00  0.00     0.004 A 
ATOM     24  CD2 PHE A   2      13.961   7.992  -4.312  1.00  0.00     0.004 A 
ATOM     25  CE1 PHE A   2      12.867   9.537  -2.259  1.00  0.00     0.000 A 
ATOM     26  CE2 PHE A   2      12.938   7.477  -3.519  1.00  0.00     0.000 A 
ATOM     27  CZ  PHE A   2      12.386   8.252  -2.499  1.00  0.00     0.000 A 
ENDBRANCH  21  22
ENDBRANCH  11  21
ENDBRANCH   8  11
ENDBRANCH   6   7
BRANCH   6  28
ATOM     28  CB  LEU A   3      20.165  12.251  -5.216  1.00  0.00     0.038 C 
BRANCH  28  29
ATOM     29  CG  LEU A   3      20.417  11.679  -3.791  1.00  0.00    -0.015 C 
ATOM     30  CD1 LEU A   3      21.819  12.066  -3.316  1.00  0.00     0.007 C 
ATOM     31  CD2 LEU A   3      19.369  12.170  -2.781  1.00  0.00     0.007 C 
ENDBRANCH  28  29
ENDBRANCH   6  28
ENDBRANCH   3   6
ENDBRANCH   1   2
BRANCH   1  32
ATOM     32  C   HIS A   4      22.714   9.206  -8.529  1.00  0.00     0.243 C 
ATOM     33  N   ARG A   5      23.820   8.711  -7.790  1.00  0.00    -0.343 N 
ATOM     34  O   HIS A   4      22.880  10.032  -9.468  1.00  0.00    -0.273 OA
ATOM     35  H   UNL     1      23.664   7.989  -7.049  1.00  0.00     0.164 HD
BRANCH  33  36
ATOM     36  CA  ARG A   5      25.184   9.118  -8.072  1.00  0.00     0.171 C 
BRANCH  36  37
ATOM     37  C   ARG A   5      25.901   7.967  -8.686  1.00  0.00     0.243 C 
ATOM     38  N   ASN A   6      25.914   7.864 -10.102  1.00  0.00    -0.341 N 
ATOM     39  O   ARG A   5      26.449   7.086  -7.970  1.00  0.00    -0.273 OA
ATOM     40  H   UNL     1      25.490   8.648 -10.651  1.00  0.00     0.164 HD
BRANCH  38  41
ATOM     41  CA  ASN A   6      26.542   6.751 -10.804  1.00  0.00     0.201 C 
BRANCH  41  42
ATOM     42  C   ASN A   6      27.993   6.641 -10.416  1.00  0.00     0.326 C 
ATOM     43  O   ASN A   6      28.794   7.578 -10.676  1.00  0.00    -0.250 OA
BRANCH  42  44
ATOM     44  OXT ASN A   6      28.451   5.498  -9.769  1.00  0.00    -0.480 OA
ATOM     45  H   UNL     1      29.423   5.408  -9.500  1.00  0.00     0.296 HD
ENDBRANCH  42  44
ENDBRANCH  41  42
BRANCH  41  46
ATOM     46  CB  ASN A   6      26.426   6.948 -12.324  1.00  0.00     0.136 C 
BRANCH  46  47
ATOM     47  CG  ASN A   6      25.013   7.184 -12.775  1.00  0.00     0.220 C 
ATOM     48  ND2 ASN A   6      24.757   8.092 -13.836  1.00  0.00    -0.370 N 
ATOM     49  OD1 ASN A   6      24.056   6.565 -12.243  1.00  0.00    -0.275 OA
ATOM     50  H   UNL     1      23.778   8.260 -14.159  1.00  0.00     0.159 HD
ATOM     51  H   UNL     1      25.537   8.600 -14.310  1.00  0.00     0.159 HD
ENDBRANCH  46  47
ENDBRANCH  41  46
ENDBRANCH  38  41
ENDBRANCH  36  37
BRANCH  36  52
ATOM     52  CB  ARG A   5      25.858   9.601  -6.793  1.00  0.00     0.037 C 
BRANCH  52  53
ATOM     53  CG  ARG A   5      25.163  10.858  -6.270  1.00  0.00     0.024 C 
BRANCH  53  54
ATOM     54  CD  ARG A   5      25.838  11.390  -5.014  1.00  0.00     0.116 C 
BRANCH  54  55
ATOM     55  NE  ARG A   5      25.378  10.686  -3.820  1.00  0.00    -0.357 N 
ATOM     56  CZ  ARG A   5      25.469  11.281  -2.526  1.00  0.00     0.185 C 
ATOM     57  NH2 ARG A   5      26.107  12.546  -2.352  1.00  0.00    -0.370 N 
ATOM     58  H   UNL     1      24.894   9.763  -3.911  1.00  0.00     0.163 HD
ATOM     59  H   UNL     1      26.696  12.982  -3.094  1.00  0.00     0.159 HD
ATOM     60  H   UNL     1      26.080  13.024  -1.424  1.00  0.00     0.159 HD
BRANCH  56  61
ATOM     61  NH1 ARG A   5      24.954  10.672  -1.507  1.00  0.00    -0.270 NA
ATOM     62  H   UNL     1      24.995  11.077  -0.545  1.00  0.00     0.191 HD
ENDBRANCH  56  61
ENDBRANCH  54  55
ENDBRANCH  53  54
ENDBRANCH  52  53
ENDBRANCH  36  52
ENDBRANCH  33  36
ENDBRANCH   1  32
BRANCH   1  63
ATOM     63  CB  HIS A   4      20.664   8.001  -9.308  1.00  0.00     0.093 C 
BRANCH  63  64
ATOM     64  CG  HIS A   4      21.413   6.769  -9.741  1.00  0.00     0.061 A 
ATOM     65  ND1 HIS A   4      22.257   6.065  -8.957  1.00  0.00    -0.242 NA
ATOM     66  CD2 HIS A   4      21.208   6.094 -10.923  1.00  0.00     0.107 A 
ATOM     67  CE1 HIS A   4      22.574   4.987  -9.704  1.00  0.00     0.196 A 
ATOM     68  NE2 HIS A   4      21.948   4.976 -10.895  1.00  0.00    -0.351 N 
ATOM     69  H   UNL     1      22.017   4.245 -11.637  1.00  0.00     0.167 HD
ENDBRANCH  63  64
ENDBRANCH   1  63
TORSDOF 26
