REMARK SMILES CC(C)C[C@H](NC(=O)[C@H](CC(N)=O)NC(=O)[C@@H](N)CO)C(=O)NCC(=O)N[C@@H](CCCNC(=N)N)C(=O)N[C@@H](CC(N)=O)C(=O)O
REMARK SMILES IDX 21 1 22 2 23 3 5 5 6 6 7 7 8 8 9 10 14 11 15 12 16 13 17 15
REMARK SMILES IDX 18 16 19 19 20 20 10 22 11 23 12 24 13 25 4 28 2 29 1 30
REMARK SMILES IDX 3 31 24 32 25 33 27 34 26 35 28 37 36 38 38 39 37 40 39 42
REMARK SMILES IDX 44 43 45 44 46 45 40 47 41 48 42 49 43 50 29 53 30 54 31 55
REMARK SMILES IDX 32 56 33 57 35 58 34 62
REMARK H PARENT 23 4 6 9 14 14 18 17 18 18 20 21 12 26 12 27 27 36 38 41 46 46
REMARK H PARENT 42 51 42 52 32 59 35 60 35 61 34 63
ROOT
ATOM      1  C   LEU A   3      20.052  10.076  -6.480  1.00  0.00     0.243 C 
ATOM      2  O   LEU A   3      20.177   9.150  -5.632  1.00  0.00    -0.273 OA
ATOM      3  N   GLY A   4      20.560   9.918  -7.794  1.00  0.00    -0.345 N 
ATOM      4  H   UNL     1      20.398  10.669  -8.503  1.00  0.00     0.164 HD
ENDROOT
BRANCH   1   5
ATOM      5  CA  LEU A   3      19.330  11.343  -6.139  1.00  0.00     0.171 C 
BRANCH   5   6
ATOM      6  N   LEU A   3      18.073  11.007  -5.521  1.00  0.00    -0.342 N 
ATOM      7  C   ASN A   2      16.874  11.736  -5.743  1.00  0.00     0.243 C 
ATOM      8  O   ASN A   2      16.891  12.785  -6.446  1.00  0.00    -0.273 OA
ATOM      9  H   UNL     1      18.143  10.361  -4.709  1.00  0.00     0.164 HD
BRANCH   7  10
ATOM     10  CA  ASN A   2      15.624  11.283  -5.038  1.00  0.00     0.180 C 
BRANCH  10  11
ATOM     11  N   ASN A   2      14.441  11.729  -5.761  1.00  0.00    -0.342 N 
ATOM     12  C   SER A   1      13.914  13.045  -5.635  1.00  0.00     0.239 C 
ATOM     13  O   SER A   1      14.453  13.863  -4.839  1.00  0.00    -0.273 OA
ATOM     14  H   UNL     1      13.854  11.001  -6.223  1.00  0.00     0.164 HD
BRANCH  12  15
ATOM     15  CA  SER A   1      12.656  13.410  -6.384  1.00  0.00     0.167 C 
BRANCH  15  16
ATOM     16  N   SER A   1      12.470  14.863  -6.379  1.00  0.00    -0.318 NA
ATOM     17  H   UNL     1      12.307  15.173  -5.393  1.00  0.00     0.119 HD
ATOM     18  H   UNL     1      11.584  15.090  -6.888  1.00  0.00     0.119 HD
ENDBRANCH  15  16
BRANCH  15  19
ATOM     19  CB  SER A   1      12.696  12.898  -7.844  1.00  0.00     0.184 C 
BRANCH  19  20
ATOM     20  OG  SER A   1      11.440  13.038  -8.449  1.00  0.00    -0.394 OA
ATOM     21  H   UNL     1      10.858  12.329  -8.067  1.00  0.00     0.210 HD
ENDBRANCH  19  20
ENDBRANCH  15  19
ENDBRANCH  12  15
ENDBRANCH  10  11
BRANCH  10  22
ATOM     22  CB  ASN A   2      15.576   9.738  -4.904  1.00  0.00     0.134 C 
BRANCH  22  23
ATOM     23  CG  ASN A   2      14.399   9.290  -4.098  1.00  0.00     0.220 C 
ATOM     24  ND2 ASN A   2      14.376   9.482  -2.684  1.00  0.00    -0.370 N 
ATOM     25  OD1 ASN A   2      13.413   8.756  -4.672  1.00  0.00    -0.275 OA
ATOM     26  H   UNL     1      15.184   9.923  -2.192  1.00  0.00     0.159 HD
ATOM     27  H   UNL     1      13.547   9.179  -2.125  1.00  0.00     0.159 HD
ENDBRANCH  22  23
ENDBRANCH  10  22
ENDBRANCH   7  10
ENDBRANCH   5   6
BRANCH   5  28
ATOM     28  CB  LEU A   3      20.158  12.247  -5.216  1.00  0.00     0.038 C 
BRANCH  28  29
ATOM     29  CG  LEU A   3      20.415  11.676  -3.791  1.00  0.00    -0.015 C 
ATOM     30  CD1 LEU A   3      21.818  12.066  -3.319  1.00  0.00     0.007 C 
ATOM     31  CD2 LEU A   3      19.369  12.167  -2.780  1.00  0.00     0.007 C 
ENDBRANCH  28  29
ENDBRANCH   5  28
ENDBRANCH   1   5
BRANCH   3  32
ATOM     32  CA  GLY A   4      21.332   8.760  -8.201  1.00  0.00     0.216 C 
BRANCH  32  33
ATOM     33  C   GLY A   4      22.706   9.206  -8.539  1.00  0.00     0.240 C 
ATOM     34  N   ARG A   5      23.806   8.709  -7.788  1.00  0.00    -0.343 N 
ATOM     35  O   GLY A   4      22.885  10.031  -9.475  1.00  0.00    -0.273 OA
ATOM     36  H   UNL     1      23.639   7.993  -7.045  1.00  0.00     0.164 HD
BRANCH  34  37
ATOM     37  CA  ARG A   5      25.174   9.114  -8.068  1.00  0.00     0.171 C 
BRANCH  37  38
ATOM     38  C   ARG A   5      25.896   7.965  -8.684  1.00  0.00     0.243 C 
ATOM     39  N   ASN A   6      25.915   7.866 -10.101  1.00  0.00    -0.341 N 
ATOM     40  O   ARG A   5      26.447   7.086  -7.969  1.00  0.00    -0.273 OA
ATOM     41  H   UNL     1      25.496   8.652 -10.649  1.00  0.00     0.164 HD
BRANCH  39  42
ATOM     42  CA  ASN A   6      26.543   6.751 -10.803  1.00  0.00     0.201 C 
BRANCH  42  43
ATOM     43  C   ASN A   6      27.993   6.642 -10.416  1.00  0.00     0.326 C 
ATOM     44  O   ASN A   6      28.795   7.579 -10.677  1.00  0.00    -0.250 OA
BRANCH  43  45
ATOM     45  OXT ASN A   6      28.452   5.499  -9.769  1.00  0.00    -0.480 OA
ATOM     46  H   UNL     1      29.425   5.409  -9.501  1.00  0.00     0.296 HD
ENDBRANCH  43  45
ENDBRANCH  42  43
BRANCH  42  47
ATOM     47  CB  ASN A   6      26.424   6.947 -12.323  1.00  0.00     0.136 C 
BRANCH  47  48
ATOM     48  CG  ASN A   6      25.010   7.182 -12.772  1.00  0.00     0.220 C 
ATOM     49  ND2 ASN A   6      24.754   8.089 -13.834  1.00  0.00    -0.370 N 
ATOM     50  OD1 ASN A   6      24.051   6.563 -12.238  1.00  0.00    -0.275 OA
ATOM     51  H   UNL     1      23.775   8.258 -14.157  1.00  0.00     0.159 HD
ATOM     52  H   UNL     1      25.534   8.596 -14.309  1.00  0.00     0.159 HD
ENDBRANCH  47  48
ENDBRANCH  42  47
ENDBRANCH  39  42
ENDBRANCH  37  38
BRANCH  37  53
ATOM     53  CB  ARG A   5      25.851   9.597  -6.790  1.00  0.00     0.037 C 
BRANCH  53  54
ATOM     54  CG  ARG A   5      25.163  10.859  -6.271  1.00  0.00     0.024 C 
BRANCH  54  55
ATOM     55  CD  ARG A   5      25.838  11.390  -5.015  1.00  0.00     0.116 C 
BRANCH  55  56
ATOM     56  NE  ARG A   5      25.377  10.684  -3.823  1.00  0.00    -0.357 N 
ATOM     57  CZ  ARG A   5      25.468  11.279  -2.527  1.00  0.00     0.185 C 
ATOM     58  NH2 ARG A   5      26.105  12.541  -2.350  1.00  0.00    -0.370 N 
ATOM     59  H   UNL     1      24.897   9.760  -3.921  1.00  0.00     0.163 HD
ATOM     60  H   UNL     1      26.692  12.982  -3.091  1.00  0.00     0.159 HD
ATOM     61  H   UNL     1      26.081  13.008  -1.416  1.00  0.00     0.159 HD
BRANCH  57  62
ATOM     62  NH1 ARG A   5      24.956  10.680  -1.500  1.00  0.00    -0.270 NA
ATOM     63  H   UNL     1      24.474   9.757  -1.584  1.00  0.00     0.191 HD
ENDBRANCH  57  62
ENDBRANCH  55  56
ENDBRANCH  54  55
ENDBRANCH  53  54
ENDBRANCH  37  53
ENDBRANCH  34  37
ENDBRANCH  32  33
ENDBRANCH   3  32
TORSDOF 26
