REMARK SMILES C[C@H](NC(=O)[C@H](C)NC(=O)[C@H](Cc1ccccc1)NC(=O)[C@@H](N)CO)C(=O)N[C@@H](CCCNC(=N)N)C(=O)N[C@@H](CC(N)=O)C(=O)O
REMARK SMILES IDX 4 1 5 2 3 3 6 5 7 6 8 7 9 8 10 9 11 11 19 12 20 13 21 14
REMARK SMILES IDX 22 16 23 17 24 20 25 21 12 23 13 24 14 25 18 26 15 27 17 28
REMARK SMILES IDX 16 29 2 30 1 31 26 32 28 33 27 34 29 36 37 37 39 38 38 39
REMARK SMILES IDX 40 41 45 42 46 43 47 44 41 46 42 47 43 48 44 49 30 52 31 53
REMARK SMILES IDX 32 54 33 55 34 56 36 57 35 61
REMARK H PARENT 3 4 8 10 19 15 23 18 23 19 25 22 28 35 39 40 47 45 43 50 43 51
REMARK H PARENT 33 58 36 59 36 60 35 62
ROOT
ATOM      1  C   ALA A   3      20.048  10.095  -6.464  1.00  0.00     0.242 C 
ATOM      2  O   ALA A   3      20.180   9.196  -5.588  1.00  0.00    -0.273 OA
ATOM      3  N   ALA A   4      20.555   9.909  -7.777  1.00  0.00    -0.343 N 
ATOM      4  H   UNL     1      20.386  10.645  -8.501  1.00  0.00     0.164 HD
ENDROOT
BRANCH   1   5
ATOM      5  CA  ALA A   3      19.343  11.371  -6.148  1.00  0.00     0.168 C 
ATOM      6  CB  ALA A   3      20.181  12.244  -5.223  1.00  0.00     0.041 C 
BRANCH   5   7
ATOM      7  N   ALA A   3      18.096  11.057  -5.497  1.00  0.00    -0.343 N 
ATOM      8  C   PHE A   2      16.889  11.752  -5.773  1.00  0.00     0.243 C 
ATOM      9  O   PHE A   2      16.901  12.792  -6.487  1.00  0.00    -0.273 OA
ATOM     10  H   UNL     1      18.189  10.554  -4.588  1.00  0.00     0.164 HD
BRANCH   8  11
ATOM     11  CA  PHE A   2      15.654  11.315  -5.059  1.00  0.00     0.175 C 
BRANCH  11  12
ATOM     12  N   PHE A   2      14.456  11.740  -5.770  1.00  0.00    -0.343 N 
ATOM     13  C   SER A   1      13.914  13.050  -5.637  1.00  0.00     0.239 C 
ATOM     14  O   SER A   1      14.442  13.869  -4.836  1.00  0.00    -0.273 OA
ATOM     15  H   UNL     1      13.874  11.000  -6.217  1.00  0.00     0.164 HD
BRANCH  13  16
ATOM     16  CA  SER A   1      12.660  13.411  -6.390  1.00  0.00     0.167 C 
BRANCH  16  17
ATOM     17  N   SER A   1      12.475  14.863  -6.375  1.00  0.00    -0.318 NA
ATOM     18  H   UNL     1      11.521  15.090  -6.739  1.00  0.00     0.119 HD
ATOM     19  H   UNL     1      13.174  15.314  -7.010  1.00  0.00     0.119 HD
ENDBRANCH  16  17
BRANCH  16  20
ATOM     20  CB  SER A   1      12.688  12.878  -7.844  1.00  0.00     0.184 C 
BRANCH  20  21
ATOM     21  OG  SER A   1      11.436  13.047  -8.450  1.00  0.00    -0.394 OA
ATOM     22  H   UNL     1      11.447  13.936  -8.892  1.00  0.00     0.210 HD
ENDBRANCH  20  21
ENDBRANCH  16  20
ENDBRANCH  13  16
ENDBRANCH  11  12
BRANCH  11  23
ATOM     23  CB  PHE A   2      15.619   9.776  -4.890  1.00  0.00     0.070 C 
BRANCH  23  24
ATOM     24  CG  PHE A   2      14.449   9.289  -4.089  1.00  0.00    -0.045 A 
ATOM     25  CD1 PHE A   2      13.906  10.047  -3.033  1.00  0.00     0.004 A 
ATOM     26  CD2 PHE A   2      13.972   7.990  -4.310  1.00  0.00     0.004 A 
ATOM     27  CE1 PHE A   2      12.870   9.536  -2.261  1.00  0.00     0.000 A 
ATOM     28  CE2 PHE A   2      12.942   7.478  -3.522  1.00  0.00     0.000 A 
ATOM     29  CZ  PHE A   2      12.387   8.253  -2.503  1.00  0.00     0.000 A 
ENDBRANCH  23  24
ENDBRANCH  11  23
ENDBRANCH   8  11
ENDBRANCH   5   7
ENDBRANCH   1   5
BRANCH   3  30
ATOM     30  CA  ALA A   4      21.339   8.746  -8.147  1.00  0.00     0.168 C 
ATOM     31  CB  ALA A   4      20.664   8.003  -9.291  1.00  0.00     0.041 C 
BRANCH  30  32
ATOM     32  C   ALA A   4      22.707   9.199  -8.527  1.00  0.00     0.242 C 
ATOM     33  N   ARG A   5      23.816   8.705  -7.789  1.00  0.00    -0.343 N 
ATOM     34  O   ALA A   4      22.872  10.026  -9.466  1.00  0.00    -0.273 OA
ATOM     35  H   UNL     1      23.662   7.982  -7.049  1.00  0.00     0.164 HD
BRANCH  33  36
ATOM     36  CA  ARG A   5      25.179   9.116  -8.072  1.00  0.00     0.171 C 
BRANCH  36  37
ATOM     37  C   ARG A   5      25.901   7.967  -8.686  1.00  0.00     0.243 C 
ATOM     38  N   ASN A   6      25.916   7.866 -10.103  1.00  0.00    -0.341 N 
ATOM     39  O   ARG A   5      26.449   7.087  -7.970  1.00  0.00    -0.273 OA
ATOM     40  H   UNL     1      25.496   8.651 -10.651  1.00  0.00     0.164 HD
BRANCH  38  41
ATOM     41  CA  ASN A   6      26.543   6.751 -10.804  1.00  0.00     0.201 C 
BRANCH  41  42
ATOM     42  C   ASN A   6      27.994   6.642 -10.417  1.00  0.00     0.326 C 
ATOM     43  O   ASN A   6      28.795   7.579 -10.677  1.00  0.00    -0.250 OA
BRANCH  42  44
ATOM     44  OXT ASN A   6      28.453   5.498  -9.772  1.00  0.00    -0.480 OA
ATOM     45  H   UNL     1      29.426   5.407  -9.504  1.00  0.00     0.296 HD
ENDBRANCH  42  44
ENDBRANCH  41  42
BRANCH  41  46
ATOM     46  CB  ASN A   6      26.424   6.946 -12.323  1.00  0.00     0.136 C 
BRANCH  46  47
ATOM     47  CG  ASN A   6      25.009   7.181 -12.772  1.00  0.00     0.220 C 
ATOM     48  ND2 ASN A   6      24.753   8.089 -13.834  1.00  0.00    -0.370 N 
ATOM     49  OD1 ASN A   6      24.051   6.563 -12.238  1.00  0.00    -0.275 OA
ATOM     50  H   UNL     1      25.533   8.595 -14.309  1.00  0.00     0.159 HD
ATOM     51  H   UNL     1      23.775   8.258 -14.156  1.00  0.00     0.159 HD
ENDBRANCH  46  47
ENDBRANCH  41  46
ENDBRANCH  38  41
ENDBRANCH  36  37
BRANCH  36  52
ATOM     52  CB  ARG A   5      25.855   9.600  -6.793  1.00  0.00     0.037 C 
BRANCH  52  53
ATOM     53  CG  ARG A   5      25.163  10.858  -6.270  1.00  0.00     0.024 C 
BRANCH  53  54
ATOM     54  CD  ARG A   5      25.840  11.389  -5.015  1.00  0.00     0.116 C 
BRANCH  54  55
ATOM     55  NE  ARG A   5      25.377  10.686  -3.820  1.00  0.00    -0.357 N 
ATOM     56  CZ  ARG A   5      25.470  11.282  -2.527  1.00  0.00     0.185 C 
ATOM     57  NH2 ARG A   5      26.109  12.546  -2.352  1.00  0.00    -0.370 N 
ATOM     58  H   UNL     1      24.897   9.761  -3.911  1.00  0.00     0.163 HD
ATOM     59  H   UNL     1      26.698  12.981  -3.094  1.00  0.00     0.159 HD
ATOM     60  H   UNL     1      26.085  13.022  -1.423  1.00  0.00     0.159 HD
BRANCH  56  61
ATOM     61  NH1 ARG A   5      24.956  10.671  -1.506  1.00  0.00    -0.270 NA
ATOM     62  H   UNL     1      24.999  11.075  -0.544  1.00  0.00     0.191 HD
ENDBRANCH  56  61
ENDBRANCH  54  55
ENDBRANCH  53  54
ENDBRANCH  52  53
ENDBRANCH  36  52
ENDBRANCH  33  36
ENDBRANCH  30  32
ENDBRANCH   3  30
TORSDOF 24
