REMARK SMILES C[C@H](NC(=O)[C@H](CCC(N)=O)NC(=O)[C@H](Cc1ccccc1)NC(=O)[C@@H](N)CO)C(=O)N[C@@H](CCCNC(=N)N)C(=O)N[C@@H](CC(N)=O)C(=O)O
REMARK SMILES IDX 4 1 5 2 3 3 6 5 12 6 13 7 14 8 15 10 23 11 24 12 25 13 26 15
REMARK SMILES IDX 27 16 28 19 29 20 16 22 17 23 18 24 22 25 19 26 21 27 20 28
REMARK SMILES IDX 7 29 8 30 9 31 10 32 11 33 2 36 1 37 30 38 32 39 31 40 33 42
REMARK SMILES IDX 41 43 43 44 42 45 44 47 49 48 50 49 51 50 45 52 46 53 47 54
REMARK SMILES IDX 48 55 34 58 35 59 36 60 37 61 38 62 40 63 39 67
REMARK H PARENT 3 4 12 9 23 14 27 17 27 18 29 21 10 34 10 35 32 41 43 46 51 51
REMARK H PARENT 47 56 47 57 37 64 40 65 40 66 39 68
ROOT
ATOM      1  C   GLN A   3      20.036  10.076  -6.477  1.00  0.00     0.243 C 
ATOM      2  O   GLN A   3      20.137   9.145  -5.631  1.00  0.00    -0.273 OA
ATOM      3  N   ALA A   4      20.564   9.914  -7.783  1.00  0.00    -0.343 N 
ATOM      4  H   UNL     1      20.411  10.662  -8.498  1.00  0.00     0.164 HD
ENDROOT
BRANCH   1   5
ATOM      5  CA  GLN A   3      19.331  11.352  -6.142  1.00  0.00     0.171 C 
BRANCH   5   6
ATOM      6  N   GLN A   3      18.084  11.039  -5.500  1.00  0.00    -0.342 N 
ATOM      7  C   PHE A   2      16.884  11.746  -5.771  1.00  0.00     0.243 C 
ATOM      8  O   PHE A   2      16.902  12.790  -6.480  1.00  0.00    -0.273 OA
ATOM      9  H   UNL     1      18.166  10.506  -4.610  1.00  0.00     0.164 HD
BRANCH   7  10
ATOM     10  CA  PHE A   2      15.650  11.312  -5.057  1.00  0.00     0.175 C 
BRANCH  10  11
ATOM     11  N   PHE A   2      14.454  11.739  -5.768  1.00  0.00    -0.343 N 
ATOM     12  C   SER A   1      13.916  13.049  -5.633  1.00  0.00     0.239 C 
ATOM     13  O   SER A   1      14.448  13.866  -4.832  1.00  0.00    -0.273 OA
ATOM     14  H   UNL     1      13.869  11.001  -6.216  1.00  0.00     0.164 HD
BRANCH  12  15
ATOM     15  CA  SER A   1      12.661  13.413  -6.387  1.00  0.00     0.167 C 
BRANCH  15  16
ATOM     16  N   SER A   1      12.457  14.863  -6.398  1.00  0.00    -0.318 NA
ATOM     17  H   UNL     1      12.292  15.193  -5.419  1.00  0.00     0.119 HD
ATOM     18  H   UNL     1      13.318  15.337  -6.758  1.00  0.00     0.119 HD
ENDBRANCH  15  16
BRANCH  15  19
ATOM     19  CB  SER A   1      12.690  12.889  -7.841  1.00  0.00     0.184 C 
BRANCH  19  20
ATOM     20  OG  SER A   1      11.437  13.050  -8.444  1.00  0.00    -0.394 OA
ATOM     21  H   UNL     1      11.385  13.993  -8.750  1.00  0.00     0.210 HD
ENDBRANCH  19  20
ENDBRANCH  15  19
ENDBRANCH  12  15
ENDBRANCH  10  11
BRANCH  10  22
ATOM     22  CB  PHE A   2      15.612   9.773  -4.890  1.00  0.00     0.070 C 
BRANCH  22  23
ATOM     23  CG  PHE A   2      14.443   9.289  -4.089  1.00  0.00    -0.045 A 
ATOM     24  CD1 PHE A   2      13.903  10.046  -3.032  1.00  0.00     0.004 A 
ATOM     25  CD2 PHE A   2      13.968   7.989  -4.309  1.00  0.00     0.004 A 
ATOM     26  CE1 PHE A   2      12.868   9.535  -2.259  1.00  0.00     0.000 A 
ATOM     27  CE2 PHE A   2      12.939   7.476  -3.520  1.00  0.00     0.000 A 
ATOM     28  CZ  PHE A   2      12.385   8.252  -2.501  1.00  0.00     0.000 A 
ENDBRANCH  22  23
ENDBRANCH  10  22
ENDBRANCH   7  10
ENDBRANCH   5   6
BRANCH   5  29
ATOM     29  CB  GLN A   3      20.167  12.257  -5.233  1.00  0.00     0.045 C 
BRANCH  29  30
ATOM     30  CG  GLN A   3      20.495  11.643  -3.849  1.00  0.00     0.102 C 
BRANCH  30  31
ATOM     31  CD  GLN A   3      21.745  12.197  -3.231  1.00  0.00     0.217 C 
ATOM     32  NE2 GLN A   3      22.880  12.603  -3.998  1.00  0.00    -0.370 N 
ATOM     33  OE1 GLN A   3      21.792  12.311  -1.977  1.00  0.00    -0.275 OA
ATOM     34  H   UNL     1      23.012  12.324  -4.991  1.00  0.00     0.159 HD
ATOM     35  H   UNL     1      23.628  13.172  -3.546  1.00  0.00     0.159 HD
ENDBRANCH  30  31
ENDBRANCH  29  30
ENDBRANCH   5  29
ENDBRANCH   1   5
BRANCH   3  36
ATOM     36  CA  ALA A   4      21.343   8.749  -8.155  1.00  0.00     0.168 C 
ATOM     37  CB  ALA A   4      20.664   8.007  -9.297  1.00  0.00     0.041 C 
BRANCH  36  38
ATOM     38  C   ALA A   4      22.711   9.198  -8.532  1.00  0.00     0.242 C 
ATOM     39  N   ARG A   5      23.819   8.707  -7.791  1.00  0.00    -0.343 N 
ATOM     40  O   ALA A   4      22.877  10.026  -9.470  1.00  0.00    -0.273 OA
ATOM     41  H   UNL     1      23.663   7.987  -7.048  1.00  0.00     0.164 HD
BRANCH  39  42
ATOM     42  CA  ARG A   5      25.183   9.115  -8.075  1.00  0.00     0.171 C 
BRANCH  42  43
ATOM     43  C   ARG A   5      25.901   7.965  -8.688  1.00  0.00     0.243 C 
ATOM     44  N   ASN A   6      25.916   7.864 -10.104  1.00  0.00    -0.341 N 
ATOM     45  O   ARG A   5      26.449   7.084  -7.972  1.00  0.00    -0.273 OA
ATOM     46  H   UNL     1      25.497   8.650 -10.653  1.00  0.00     0.164 HD
BRANCH  44  47
ATOM     47  CA  ASN A   6      26.544   6.750 -10.805  1.00  0.00     0.201 C 
BRANCH  47  48
ATOM     48  C   ASN A   6      27.994   6.641 -10.418  1.00  0.00     0.326 C 
ATOM     49  O   ASN A   6      28.795   7.579 -10.677  1.00  0.00    -0.250 OA
BRANCH  48  50
ATOM     50  OXT ASN A   6      28.454   5.497  -9.773  1.00  0.00    -0.480 OA
ATOM     51  H   UNL     1      29.427   5.407  -9.505  1.00  0.00     0.296 HD
ENDBRANCH  48  50
ENDBRANCH  47  48
BRANCH  47  52
ATOM     52  CB  ASN A   6      26.424   6.945 -12.324  1.00  0.00     0.136 C 
BRANCH  52  53
ATOM     53  CG  ASN A   6      25.010   7.181 -12.772  1.00  0.00     0.220 C 
ATOM     54  ND2 ASN A   6      24.753   8.089 -13.834  1.00  0.00    -0.370 N 
ATOM     55  OD1 ASN A   6      24.051   6.563 -12.238  1.00  0.00    -0.275 OA
ATOM     56  H   UNL     1      23.775   8.259 -14.156  1.00  0.00     0.159 HD
ATOM     57  H   UNL     1      25.533   8.595 -14.309  1.00  0.00     0.159 HD
ENDBRANCH  52  53
ENDBRANCH  47  52
ENDBRANCH  44  47
ENDBRANCH  42  43
BRANCH  42  58
ATOM     58  CB  ARG A   5      25.864   9.596  -6.799  1.00  0.00     0.037 C 
BRANCH  58  59
ATOM     59  CG  ARG A   5      25.174  10.850  -6.272  1.00  0.00     0.024 C 
BRANCH  59  60
ATOM     60  CD  ARG A   5      25.857  11.377  -5.016  1.00  0.00     0.116 C 
BRANCH  60  61
ATOM     61  NE  ARG A   5      25.383  10.681  -3.822  1.00  0.00    -0.357 N 
ATOM     62  CZ  ARG A   5      25.476  11.275  -2.526  1.00  0.00     0.185 C 
ATOM     63  NH2 ARG A   5      26.113  12.537  -2.349  1.00  0.00    -0.370 N 
ATOM     64  H   UNL     1      24.899   9.758  -3.919  1.00  0.00     0.163 HD
ATOM     65  H   UNL     1      26.703  12.977  -3.088  1.00  0.00     0.159 HD
ATOM     66  H   UNL     1      26.083  13.007  -1.416  1.00  0.00     0.159 HD
BRANCH  62  67
ATOM     67  NH1 ARG A   5      24.959  10.679  -1.499  1.00  0.00    -0.270 NA
ATOM     68  H   UNL     1      24.473   9.758  -1.584  1.00  0.00     0.191 HD
ENDBRANCH  62  67
ENDBRANCH  60  61
ENDBRANCH  59  60
ENDBRANCH  58  59
ENDBRANCH  42  58
ENDBRANCH  39  42
ENDBRANCH  36  38
ENDBRANCH   3  36
TORSDOF 27
