REMARK SMILES CC(C)C[C@H](NC(=O)[C@H](CCC(=O)O)NC(=O)CNC(=O)[C@@H](N)CO)C(=O)N[C@@H](CCCNC(=N)N)C(=O)N[C@@H](CC(N)=O)C(=O)O
REMARK SMILES IDX 7 1 8 2 6 3 9 5 15 6 16 7 17 8 18 10 19 11 20 12 21 13 22 15
REMARK SMILES IDX 23 16 24 19 25 20 10 22 11 23 12 24 13 25 14 26 5 28 26 29
REMARK SMILES IDX 28 30 27 31 29 33 37 34 39 35 38 36 40 38 45 39 46 40 47 41
REMARK SMILES IDX 41 43 42 44 43 45 44 46 30 49 31 50 32 51 33 52 34 53 36 54
REMARK SMILES IDX 35 58 4 60 2 61 1 62 3 63
REMARK H PARENT 6 4 15 9 19 14 23 17 23 18 25 21 14 27 28 32 39 37 47 42 43 47
REMARK H PARENT 43 48 33 55 36 56 36 57 35 59
ROOT
ATOM      1  C   GLU A   3      20.036  10.075  -6.464  1.00  0.00     0.243 C 
ATOM      2  O   GLU A   3      20.167   9.158  -5.607  1.00  0.00    -0.273 OA
ATOM      3  N   LEU A   4      20.565   9.921  -7.771  1.00  0.00    -0.343 N 
ATOM      4  H   UNL     1      20.401  10.664  -8.488  1.00  0.00     0.164 HD
ENDROOT
BRANCH   1   5
ATOM      5  CA  GLU A   3      19.309  11.332  -6.129  1.00  0.00     0.172 C 
BRANCH   5   6
ATOM      6  N   GLU A   3      18.040  10.998  -5.514  1.00  0.00    -0.343 N 
ATOM      7  C   GLY A   2      16.867  11.762  -5.734  1.00  0.00     0.240 C 
ATOM      8  O   GLY A   2      16.900  12.805  -6.445  1.00  0.00    -0.273 OA
ATOM      9  H   UNL     1      18.009  10.245  -4.788  1.00  0.00     0.164 HD
BRANCH   7  10
ATOM     10  CA  GLY A   2      15.630  11.332  -5.023  1.00  0.00     0.216 C 
BRANCH  10  11
ATOM     11  N   GLY A   2      14.439  11.727  -5.743  1.00  0.00    -0.346 N 
ATOM     12  C   SER A   1      13.907  13.045  -5.633  1.00  0.00     0.239 C 
ATOM     13  O   SER A   1      14.441  13.872  -4.842  1.00  0.00    -0.273 OA
ATOM     14  H   UNL     1      13.856  10.961  -6.145  1.00  0.00     0.164 HD
BRANCH  12  15
ATOM     15  CA  SER A   1      12.658  13.407  -6.388  1.00  0.00     0.167 C 
BRANCH  15  16
ATOM     16  N   SER A   1      12.472  14.859  -6.382  1.00  0.00    -0.318 NA
ATOM     17  H   UNL     1      11.541  15.085  -6.801  1.00  0.00     0.119 HD
ATOM     18  H   UNL     1      13.205  15.309  -6.979  1.00  0.00     0.119 HD
ENDBRANCH  15  16
BRANCH  15  19
ATOM     19  CB  SER A   1      12.689  12.867  -7.838  1.00  0.00     0.184 C 
BRANCH  19  20
ATOM     20  OG  SER A   1      11.442  13.041  -8.453  1.00  0.00    -0.394 OA
ATOM     21  H   UNL     1      10.832  12.363  -8.060  1.00  0.00     0.210 HD
ENDBRANCH  19  20
ENDBRANCH  15  19
ENDBRANCH  12  15
ENDBRANCH  10  11
ENDBRANCH   7  10
ENDBRANCH   5   6
BRANCH   5  22
ATOM     22  CB  GLU A   3      20.148  12.244  -5.226  1.00  0.00     0.047 C 
BRANCH  22  23
ATOM     23  CG  GLU A   3      20.378  11.710  -3.798  1.00  0.00     0.125 C 
BRANCH  23  24
ATOM     24  CD  GLU A   3      21.759  12.036  -3.326  1.00  0.00     0.303 C 
ATOM     25  OE1 GLU A   3      22.521  11.108  -2.955  1.00  0.00    -0.252 OA
BRANCH  24  26
ATOM     26  OE2 GLU A   3      22.194  13.357  -3.279  1.00  0.00    -0.481 OA
ATOM     27  H   UNL     1      23.128  13.585  -2.960  1.00  0.00     0.296 HD
ENDBRANCH  24  26
ENDBRANCH  23  24
ENDBRANCH  22  23
ENDBRANCH   5  22
ENDBRANCH   1   5
BRANCH   3  28
ATOM     28  CA  LEU A   4      21.349   8.760  -8.141  1.00  0.00     0.171 C 
BRANCH  28  29
ATOM     29  C   LEU A   4      22.714   9.216  -8.522  1.00  0.00     0.243 C 
ATOM     30  N   ARG A   5      23.823   8.721  -7.786  1.00  0.00    -0.343 N 
ATOM     31  O   LEU A   4      22.878  10.033  -9.469  1.00  0.00    -0.273 OA
ATOM     32  H   UNL     1      23.667   8.031  -7.015  1.00  0.00     0.164 HD
BRANCH  30  33
ATOM     33  CA  ARG A   5      25.186   9.122  -8.072  1.00  0.00     0.171 C 
BRANCH  33  34
ATOM     34  C   ARG A   5      25.900   7.968  -8.685  1.00  0.00     0.243 C 
ATOM     35  N   ASN A   6      25.913   7.865 -10.102  1.00  0.00    -0.341 N 
ATOM     36  O   ARG A   5      26.447   7.087  -7.969  1.00  0.00    -0.273 OA
ATOM     37  H   UNL     1      25.488   8.647 -10.651  1.00  0.00     0.164 HD
BRANCH  35  38
ATOM     38  CA  ASN A   6      26.542   6.751 -10.804  1.00  0.00     0.201 C 
BRANCH  38  39
ATOM     39  C   ASN A   6      27.993   6.642 -10.416  1.00  0.00     0.326 C 
ATOM     40  O   ASN A   6      28.794   7.579 -10.677  1.00  0.00    -0.250 OA
BRANCH  39  41
ATOM     41  OXT ASN A   6      28.451   5.499  -9.768  1.00  0.00    -0.480 OA
ATOM     42  H   UNL     1      29.424   5.409  -9.500  1.00  0.00     0.296 HD
ENDBRANCH  39  41
ENDBRANCH  38  39
BRANCH  38  43
ATOM     43  CB  ASN A   6      26.424   6.947 -12.323  1.00  0.00     0.136 C 
BRANCH  43  44
ATOM     44  CG  ASN A   6      25.010   7.181 -12.773  1.00  0.00     0.220 C 
ATOM     45  ND2 ASN A   6      24.753   8.090 -13.833  1.00  0.00    -0.370 N 
ATOM     46  OD1 ASN A   6      24.053   6.558 -12.243  1.00  0.00    -0.275 OA
ATOM     47  H   UNL     1      23.775   8.258 -14.156  1.00  0.00     0.159 HD
ATOM     48  H   UNL     1      25.533   8.600 -14.306  1.00  0.00     0.159 HD
ENDBRANCH  43  44
ENDBRANCH  38  43
ENDBRANCH  35  38
ENDBRANCH  33  34
BRANCH  33  49
ATOM     49  CB  ARG A   5      25.863   9.606  -6.795  1.00  0.00     0.037 C 
BRANCH  49  50
ATOM     50  CG  ARG A   5      25.163  10.858  -6.267  1.00  0.00     0.024 C 
BRANCH  50  51
ATOM     51  CD  ARG A   5      25.840  11.393  -5.013  1.00  0.00     0.116 C 
BRANCH  51  52
ATOM     52  NE  ARG A   5      25.391  10.684  -3.818  1.00  0.00    -0.357 N 
ATOM     53  CZ  ARG A   5      25.485  11.280  -2.524  1.00  0.00     0.185 C 
ATOM     54  NH2 ARG A   5      26.110  12.551  -2.352  1.00  0.00    -0.370 N 
ATOM     55  H   UNL     1      24.925   9.752  -3.907  1.00  0.00     0.163 HD
ATOM     56  H   UNL     1      26.079  13.030  -1.425  1.00  0.00     0.159 HD
ATOM     57  H   UNL     1      26.693  12.992  -3.096  1.00  0.00     0.159 HD
BRANCH  53  58
ATOM     58  NH1 ARG A   5      24.979  10.667  -1.501  1.00  0.00    -0.270 NA
ATOM     59  H   UNL     1      25.020  11.073  -0.540  1.00  0.00     0.191 HD
ENDBRANCH  53  58
ENDBRANCH  51  52
ENDBRANCH  50  51
ENDBRANCH  49  50
ENDBRANCH  33  49
ENDBRANCH  30  33
ENDBRANCH  28  29
BRANCH  28  60
ATOM     60  CB  LEU A   4      20.655   8.000  -9.273  1.00  0.00     0.038 C 
BRANCH  60  61
ATOM     61  CG  LEU A   4      21.448   6.771  -9.769  1.00  0.00    -0.015 C 
ATOM     62  CD1 LEU A   4      21.762   5.778  -8.640  1.00  0.00     0.007 C 
ATOM     63  CD2 LEU A   4      20.661   6.067 -10.878  1.00  0.00     0.007 C 
ENDBRANCH  60  61
ENDBRANCH  28  60
ENDBRANCH   3  28
TORSDOF 28
