REMARK SMILES CC(C)C[C@H](NC(=O)[C@H](CC(N)=O)NC(=O)[C@H](Cc1ccccc1)NC(=O)[C@H](C)N)C(=O)N[C@@H](CCCNC(=N)N)C(=O)N[C@@H](CC(N)=O)C(=O)O
REMARK SMILES IDX 5 1 6 2 7 3 8 4 9 6 14 7 15 8 16 9 17 11 25 12 26 13 27 14
REMARK SMILES IDX 28 16 29 17 30 18 18 21 19 22 20 23 24 24 21 25 23 26 22 27
REMARK SMILES IDX 10 28 11 29 12 30 13 31 31 34 33 35 32 36 34 38 42 39 44 40
REMARK SMILES IDX 43 41 45 43 50 44 51 45 52 46 46 48 47 49 48 50 49 51 35 54
REMARK SMILES IDX 36 55 37 56 38 57 39 58 41 59 40 63 4 65 2 66 1 67 3 68
REMARK H PARENT 6 5 14 10 25 15 30 19 30 20 12 32 12 33 33 37 44 42 52 47
REMARK H PARENT 48 52 48 53 38 60 41 61 41 62 40 64
ROOT
ATOM      1  CA  LEU A   4      21.348   8.760  -8.138  1.00  0.00     0.171 C 
ENDROOT
BRANCH   1   2
ATOM      2  N   LEU A   4      20.563   9.921  -7.770  1.00  0.00    -0.342 N 
ATOM      3  C   ASN A   3      20.052  10.095  -6.458  1.00  0.00     0.243 C 
ATOM      4  O   ASN A   3      20.170   9.182  -5.593  1.00  0.00    -0.273 OA
ATOM      5  H   UNL     1      20.395  10.659  -8.492  1.00  0.00     0.164 HD
BRANCH   3   6
ATOM      6  CA  ASN A   3      19.347  11.366  -6.129  1.00  0.00     0.180 C 
BRANCH   6   7
ATOM      7  N   ASN A   3      18.090  11.043  -5.506  1.00  0.00    -0.342 N 
ATOM      8  C   PHE A   2      16.890  11.749  -5.775  1.00  0.00     0.243 C 
ATOM      9  O   PHE A   2      16.909  12.794  -6.483  1.00  0.00    -0.273 OA
ATOM     10  H   UNL     1      18.163  10.484  -4.631  1.00  0.00     0.164 HD
BRANCH   8  11
ATOM     11  CA  PHE A   2      15.650  11.315  -5.069  1.00  0.00     0.175 C 
BRANCH  11  12
ATOM     12  N   PHE A   2      14.466  11.750  -5.795  1.00  0.00    -0.343 N 
ATOM     13  C   ALA A   1      13.909  13.048  -5.625  1.00  0.00     0.237 C 
ATOM     14  O   ALA A   1      14.438  13.857  -4.813  1.00  0.00    -0.273 OA
ATOM     15  H   UNL     1      14.011  11.071  -6.444  1.00  0.00     0.164 HD
BRANCH  13  16
ATOM     16  CA  ALA A   1      12.657  13.426  -6.378  1.00  0.00     0.138 C 
ATOM     17  CB  ALA A   1      12.677  12.895  -7.820  1.00  0.00     0.035 C 
BRANCH  16  18
ATOM     18  N   ALA A   1      12.475  14.877  -6.403  1.00  0.00    -0.320 NA
ATOM     19  H   UNL     1      12.320  15.220  -5.426  1.00  0.00     0.119 HD
ATOM     20  H   UNL     1      13.341  15.334  -6.772  1.00  0.00     0.119 HD
ENDBRANCH  16  18
ENDBRANCH  13  16
ENDBRANCH  11  12
BRANCH  11  21
ATOM     21  CB  PHE A   2      15.604   9.776  -4.901  1.00  0.00     0.070 C 
BRANCH  21  22
ATOM     22  CG  PHE A   2      14.437   9.293  -4.097  1.00  0.00    -0.045 A 
ATOM     23  CD1 PHE A   2      13.901  10.049  -3.037  1.00  0.00     0.004 A 
ATOM     24  CD2 PHE A   2      13.965   7.991  -4.312  1.00  0.00     0.004 A 
ATOM     25  CE1 PHE A   2      12.870   9.537  -2.260  1.00  0.00     0.000 A 
ATOM     26  CE2 PHE A   2      12.940   7.477  -3.520  1.00  0.00     0.000 A 
ATOM     27  CZ  PHE A   2      12.387   8.253  -2.500  1.00  0.00     0.000 A 
ENDBRANCH  21  22
ENDBRANCH  11  21
ENDBRANCH   8  11
ENDBRANCH   6   7
BRANCH   6  28
ATOM     28  CB  ASN A   3      20.178  12.263  -5.200  1.00  0.00     0.134 C 
BRANCH  28  29
ATOM     29  CG  ASN A   3      20.422  11.673  -3.833  1.00  0.00     0.220 C 
ATOM     30  ND2 ASN A   3      21.598  10.906  -3.575  1.00  0.00    -0.370 N 
ATOM     31  OD1 ASN A   3      19.585  11.860  -2.910  1.00  0.00    -0.275 OA
ATOM     32  H   UNL     1      21.767  10.501  -2.627  1.00  0.00     0.159 HD
ATOM     33  H   UNL     1      22.303  10.741  -4.327  1.00  0.00     0.159 HD
ENDBRANCH  28  29
ENDBRANCH   6  28
ENDBRANCH   3   6
ENDBRANCH   1   2
BRANCH   1  34
ATOM     34  C   LEU A   4      22.713   9.216  -8.519  1.00  0.00     0.243 C 
ATOM     35  N   ARG A   5      23.822   8.720  -7.785  1.00  0.00    -0.343 N 
ATOM     36  O   LEU A   4      22.876  10.032  -9.467  1.00  0.00    -0.273 OA
ATOM     37  H   UNL     1      23.667   8.031  -7.014  1.00  0.00     0.164 HD
BRANCH  35  38
ATOM     38  CA  ARG A   5      25.185   9.122  -8.073  1.00  0.00     0.171 C 
BRANCH  38  39
ATOM     39  C   ARG A   5      25.899   7.967  -8.685  1.00  0.00     0.243 C 
ATOM     40  N   ASN A   6      25.913   7.864 -10.102  1.00  0.00    -0.341 N 
ATOM     41  O   ARG A   5      26.447   7.087  -7.969  1.00  0.00    -0.273 OA
ATOM     42  H   UNL     1      25.489   8.647 -10.651  1.00  0.00     0.164 HD
BRANCH  40  43
ATOM     43  CA  ASN A   6      26.542   6.751 -10.804  1.00  0.00     0.201 C 
BRANCH  43  44
ATOM     44  C   ASN A   6      27.993   6.642 -10.416  1.00  0.00     0.326 C 
ATOM     45  O   ASN A   6      28.794   7.579 -10.677  1.00  0.00    -0.250 OA
BRANCH  44  46
ATOM     46  OXT ASN A   6      28.451   5.499  -9.768  1.00  0.00    -0.480 OA
ATOM     47  H   UNL     1      29.424   5.409  -9.500  1.00  0.00     0.296 HD
ENDBRANCH  44  46
ENDBRANCH  43  44
BRANCH  43  48
ATOM     48  CB  ASN A   6      26.424   6.946 -12.323  1.00  0.00     0.136 C 
BRANCH  48  49
ATOM     49  CG  ASN A   6      25.010   7.180 -12.773  1.00  0.00     0.220 C 
ATOM     50  ND2 ASN A   6      24.753   8.090 -13.833  1.00  0.00    -0.370 N 
ATOM     51  OD1 ASN A   6      24.053   6.558 -12.243  1.00  0.00    -0.275 OA
ATOM     52  H   UNL     1      23.775   8.258 -14.156  1.00  0.00     0.159 HD
ATOM     53  H   UNL     1      25.533   8.600 -14.306  1.00  0.00     0.159 HD
ENDBRANCH  48  49
ENDBRANCH  43  48
ENDBRANCH  40  43
ENDBRANCH  38  39
BRANCH  38  54
ATOM     54  CB  ARG A   5      25.863   9.605  -6.796  1.00  0.00     0.037 C 
BRANCH  54  55
ATOM     55  CG  ARG A   5      25.169  10.862  -6.273  1.00  0.00     0.024 C 
BRANCH  55  56
ATOM     56  CD  ARG A   5      25.841  11.392  -5.015  1.00  0.00     0.116 C 
BRANCH  56  57
ATOM     57  NE  ARG A   5      25.376  10.685  -3.824  1.00  0.00    -0.357 N 
ATOM     58  CZ  ARG A   5      25.467  11.279  -2.528  1.00  0.00     0.185 C 
ATOM     59  NH2 ARG A   5      26.106  12.540  -2.350  1.00  0.00    -0.370 N 
ATOM     60  H   UNL     1      24.898   9.760  -3.923  1.00  0.00     0.163 HD
ATOM     61  H   UNL     1      26.083  13.005  -1.415  1.00  0.00     0.159 HD
ATOM     62  H   UNL     1      26.693  12.982  -3.090  1.00  0.00     0.159 HD
BRANCH  58  63
ATOM     63  NH1 ARG A   5      24.956  10.678  -1.501  1.00  0.00    -0.270 NA
ATOM     64  H   UNL     1      24.473   9.756  -1.585  1.00  0.00     0.191 HD
ENDBRANCH  58  63
ENDBRANCH  56  57
ENDBRANCH  55  56
ENDBRANCH  54  55
ENDBRANCH  38  54
ENDBRANCH  35  38
ENDBRANCH   1  34
BRANCH   1  65
ATOM     65  CB  LEU A   4      20.655   7.999  -9.271  1.00  0.00     0.038 C 
BRANCH  65  66
ATOM     66  CG  LEU A   4      21.448   6.771  -9.768  1.00  0.00    -0.015 C 
ATOM     67  CD1 LEU A   4      21.762   5.778  -8.639  1.00  0.00     0.007 C 
ATOM     68  CD2 LEU A   4      20.661   6.068 -10.877  1.00  0.00     0.007 C 
ENDBRANCH  65  66
ENDBRANCH   1  65
TORSDOF 26
