REMARK SMILES CC(C)C[C@H](NC(=O)[C@H](CCC(=O)O)NC(=O)[C@@H](N)CO)C(=O)N[C@@H](C)C(=O)N[C@@H](CCCNC(=N)N)C(=O)N[C@@H](CC(N)=O)C(=O)O
REMARK SMILES IDX 22 1 23 2 24 3 5 5 6 6 7 7 8 8 9 10 15 11 16 12 17 13 18 15
REMARK SMILES IDX 19 16 20 19 21 20 10 22 11 23 12 24 13 25 14 26 4 28 2 29
REMARK SMILES IDX 1 30 3 31 25 32 26 33 27 34 29 35 28 36 30 38 38 39 40 40
REMARK SMILES IDX 39 41 41 43 46 44 47 45 48 46 42 48 43 49 44 50 45 51 31 54
REMARK SMILES IDX 32 55 33 56 34 57 35 58 37 59 36 63
REMARK H PARENT 24 4 6 9 15 14 19 17 19 18 21 21 14 27 29 37 40 42 48 47 44 52
REMARK H PARENT 44 53 34 60 37 61 37 62 36 64
ROOT
ATOM      1  C   LEU A   3       1.638   0.636   0.204  1.00  0.00     0.243 C 
ATOM      2  O   LEU A   3       1.660   1.322   1.265  1.00  0.00    -0.273 OA
ATOM      3  N   ALA A   4       0.396   0.423  -0.485  1.00  0.00    -0.343 N 
ATOM      4  H   UNL     1       0.411  -0.165  -1.351  1.00  0.00     0.164 HD
ENDROOT
BRANCH   1   5
ATOM      5  CA  LEU A   3       2.905  -0.006  -0.315  1.00  0.00     0.171 C 
BRANCH   5   6
ATOM      6  N   LEU A   3       4.091   0.802  -0.002  1.00  0.00    -0.343 N 
ATOM      7  C   GLU A   2       5.352   0.604  -0.658  1.00  0.00     0.243 C 
ATOM      8  O   GLU A   2       5.429  -0.137  -1.678  1.00  0.00    -0.273 OA
ATOM      9  H   UNL     1       4.035   1.560   0.716  1.00  0.00     0.164 HD
BRANCH   7  10
ATOM     10  CA  GLU A   2       6.571   1.330  -0.155  1.00  0.00     0.172 C 
BRANCH  10  11
ATOM     11  N   GLU A   2       7.794   0.670  -0.627  1.00  0.00    -0.343 N 
ATOM     12  C   SER A   1       8.357  -0.470   0.039  1.00  0.00     0.239 C 
ATOM     13  O   SER A   1       7.800  -0.942   1.068  1.00  0.00    -0.273 OA
ATOM     14  H   UNL     1       8.221   0.985  -1.527  1.00  0.00     0.164 HD
BRANCH  12  15
ATOM     15  CA  SER A   1       9.597  -1.133  -0.513  1.00  0.00     0.167 C 
BRANCH  15  16
ATOM     16  N   SER A   1      10.607  -1.315   0.532  1.00  0.00    -0.318 NA
ATOM     17  H   UNL     1      10.216  -1.908   1.300  1.00  0.00     0.119 HD
ATOM     18  H   UNL     1      10.833  -0.379   0.943  1.00  0.00     0.119 HD
ENDBRANCH  15  16
BRANCH  15  19
ATOM     19  CB  SER A   1       9.257  -2.483  -1.155  1.00  0.00     0.184 C 
BRANCH  19  20
ATOM     20  OG  SER A   1       8.356  -2.299  -2.212  1.00  0.00    -0.394 OA
ATOM     21  H   UNL     1       8.189  -3.201  -2.591  1.00  0.00     0.210 HD
ENDBRANCH  19  20
ENDBRANCH  15  19
ENDBRANCH  12  15
ENDBRANCH  10  11
BRANCH  10  22
ATOM     22  CB  GLU A   2       6.532   2.802  -0.615  1.00  0.00     0.047 C 
BRANCH  22  23
ATOM     23  CG  GLU A   2       7.691   3.637  -0.050  1.00  0.00     0.125 C 
BRANCH  23  24
ATOM     24  CD  GLU A   2       7.650   3.714   1.447  1.00  0.00     0.303 C 
ATOM     25  OE1 GLU A   2       6.703   4.312   2.026  1.00  0.00    -0.252 OA
BRANCH  24  26
ATOM     26  OE2 GLU A   2       8.650   3.106   2.202  1.00  0.00    -0.481 OA
ATOM     27  H   UNL     1       8.626   3.139   3.216  1.00  0.00     0.296 HD
ENDBRANCH  24  26
ENDBRANCH  23  24
ENDBRANCH  22  23
ENDBRANCH  10  22
ENDBRANCH   7  10
ENDBRANCH   5   6
BRANCH   5  28
ATOM     28  CB  LEU A   3       3.055  -1.464   0.183  1.00  0.00     0.038 C 
BRANCH  28  29
ATOM     29  CG  LEU A   3       3.047  -1.668   1.723  1.00  0.00    -0.015 C 
ATOM     30  CD1 LEU A   3       4.338  -1.168   2.391  1.00  0.00     0.007 C 
ATOM     31  CD2 LEU A   3       2.853  -3.156   2.046  1.00  0.00     0.007 C 
ENDBRANCH  28  29
ENDBRANCH   5  28
ENDBRANCH   1   5
BRANCH   3  32
ATOM     32  CA  ALA A   4      -0.840   1.119  -0.107  1.00  0.00     0.168 C 
ATOM     33  CB  ALA A   4      -0.848   2.528  -0.701  1.00  0.00     0.041 C 
BRANCH  32  34
ATOM     34  C   ALA A   4      -2.049   0.352  -0.579  1.00  0.00     0.242 C 
ATOM     35  N   ARG A   5      -3.147   0.114   0.316  1.00  0.00    -0.343 N 
ATOM     36  O   ALA A   4      -2.115  -0.038  -1.778  1.00  0.00    -0.273 OA
ATOM     37  H   UNL     1      -3.149   0.602   1.241  1.00  0.00     0.164 HD
BRANCH  35  38
ATOM     38  CA  ARG A   5      -4.336  -0.643  -0.085  1.00  0.00     0.171 C 
BRANCH  38  39
ATOM     39  C   ARG A   5      -5.310   0.292  -0.756  1.00  0.00     0.243 C 
ATOM     40  N   ASN A   6      -5.932   1.360  -0.020  1.00  0.00    -0.341 N 
ATOM     41  O   ARG A   5      -5.550   0.146  -1.986  1.00  0.00    -0.273 OA
ATOM     42  H   UNL     1      -5.662   1.495   0.980  1.00  0.00     0.164 HD
BRANCH  40  43
ATOM     43  CA  ASN A   6      -6.912   2.270  -0.626  1.00  0.00     0.201 C 
BRANCH  43  44
ATOM     44  C   ASN A   6      -7.064   3.501   0.231  1.00  0.00     0.326 C 
ATOM     45  O   ASN A   6      -7.610   3.427   1.365  1.00  0.00    -0.250 OA
BRANCH  44  46
ATOM     46  OXT ASN A   6      -6.582   4.722  -0.225  1.00  0.00    -0.480 OA
ATOM     47  H   UNL     1      -6.664   5.557   0.341  1.00  0.00     0.296 HD
ENDBRANCH  44  46
ENDBRANCH  43  44
BRANCH  43  48
ATOM     48  CB  ASN A   6      -8.259   1.545  -0.818  1.00  0.00     0.136 C 
BRANCH  48  49
ATOM     49  CG  ASN A   6      -9.315   2.435  -1.411  1.00  0.00     0.220 C 
ATOM     50  ND2 ASN A   6     -10.624   2.479  -0.844  1.00  0.00    -0.370 N 
ATOM     51  OD1 ASN A   6      -9.058   3.123  -2.437  1.00  0.00    -0.275 OA
ATOM     52  H   UNL     1     -10.890   1.848  -0.057  1.00  0.00     0.159 HD
ATOM     53  H   UNL     1     -11.356   3.096  -1.259  1.00  0.00     0.159 HD
ENDBRANCH  48  49
ENDBRANCH  43  48
ENDBRANCH  40  43
ENDBRANCH  38  39
BRANCH  38  54
ATOM     54  CB  ARG A   5      -4.942  -1.357   1.144  1.00  0.00     0.037 C 
BRANCH  54  55
ATOM     55  CG  ARG A   5      -5.960  -2.460   0.800  1.00  0.00     0.024 C 
BRANCH  55  56
ATOM     56  CD  ARG A   5      -7.351  -1.912   0.460  1.00  0.00     0.116 C 
BRANCH  56  57
ATOM     57  NE  ARG A   5      -8.337  -2.992   0.458  1.00  0.00    -0.357 N 
ATOM     58  CZ  ARG A   5      -8.435  -3.958  -0.600  1.00  0.00     0.185 C 
ATOM     59  NH2 ARG A   5      -9.407  -5.004  -0.513  1.00  0.00    -0.370 N 
ATOM     60  H   UNL     1      -9.020  -3.039   1.246  1.00  0.00     0.163 HD
ATOM     61  H   UNL     1     -10.026  -5.084   0.323  1.00  0.00     0.159 HD
ATOM     62  H   UNL     1      -9.499  -5.714  -1.273  1.00  0.00     0.159 HD
BRANCH  58  63
ATOM     63  NH1 ARG A   5      -7.660  -3.874  -1.636  1.00  0.00    -0.270 NA
ATOM     64  H   UNL     1      -7.716  -4.558  -2.424  1.00  0.00     0.191 HD
ENDBRANCH  58  63
ENDBRANCH  56  57
ENDBRANCH  55  56
ENDBRANCH  54  55
ENDBRANCH  38  54
ENDBRANCH  35  38
ENDBRANCH  32  34
ENDBRANCH   3  32
TORSDOF 28
