REMARK SMILES CC(C)[C@H](NC(=O)[C@H](Cc1ccccc1)NC(=O)[C@@H](N)CO)C(=O)N[C@@H](C)C(=O)N[C@@H](CCCNC(=N)N)C(=O)N[C@@H](CC(N)=O)C(=O)O
REMARK SMILES IDX 23 1 24 2 25 3 4 5 5 6 6 7 7 8 8 10 16 11 17 12 18 13 19 15
REMARK SMILES IDX 20 16 21 19 22 20 9 22 10 23 11 24 15 25 12 26 14 27 13 28
REMARK SMILES IDX 2 29 1 30 3 31 26 32 27 33 28 34 30 35 29 36 31 38 39 39
REMARK SMILES IDX 41 40 40 41 42 43 47 44 48 45 49 46 43 48 44 49 45 50 46 51
REMARK SMILES IDX 32 54 33 55 34 56 35 57 36 58 38 59 37 63
REMARK H PARENT 25 4 5 9 16 14 20 17 20 18 22 21 30 37 41 42 49 47 45 52 45 53
REMARK H PARENT 35 60 38 61 38 62 37 64
ROOT
ATOM      1  C   VAL A   3      20.047  10.087  -6.466  1.00  0.00     0.243 C 
ATOM      2  O   VAL A   3      20.162   9.170  -5.606  1.00  0.00    -0.273 OA
ATOM      3  N   ALA A   4      20.559   9.912  -7.778  1.00  0.00    -0.343 N 
ATOM      4  H   UNL     1      20.397  10.653  -8.498  1.00  0.00     0.164 HD
ENDROOT
BRANCH   1   5
ATOM      5  CA  VAL A   3      19.348  11.366  -6.133  1.00  0.00     0.174 C 
BRANCH   5   6
ATOM      6  N   VAL A   3      18.091  11.046  -5.507  1.00  0.00    -0.342 N 
ATOM      7  C   PHE A   2      16.886  11.746  -5.777  1.00  0.00     0.243 C 
ATOM      8  O   PHE A   2      16.897  12.786  -6.492  1.00  0.00    -0.273 OA
ATOM      9  H   UNL     1      18.163  10.471  -4.643  1.00  0.00     0.164 HD
BRANCH   7  10
ATOM     10  CA  PHE A   2      15.652  11.313  -5.059  1.00  0.00     0.175 C 
BRANCH  10  11
ATOM     11  N   PHE A   2      14.454  11.740  -5.769  1.00  0.00    -0.343 N 
ATOM     12  C   SER A   1      13.914  13.050  -5.637  1.00  0.00     0.239 C 
ATOM     13  O   SER A   1      14.443  13.869  -4.836  1.00  0.00    -0.273 OA
ATOM     14  H   UNL     1      13.871  11.000  -6.216  1.00  0.00     0.164 HD
BRANCH  12  15
ATOM     15  CA  SER A   1      12.660  13.411  -6.390  1.00  0.00     0.167 C 
BRANCH  15  16
ATOM     16  N   SER A   1      12.475  14.863  -6.375  1.00  0.00    -0.318 NA
ATOM     17  H   UNL     1      13.175  15.315  -7.009  1.00  0.00     0.119 HD
ATOM     18  H   UNL     1      11.521  15.090  -6.740  1.00  0.00     0.119 HD
ENDBRANCH  15  16
BRANCH  15  19
ATOM     19  CB  SER A   1      12.688  12.878  -7.844  1.00  0.00     0.184 C 
BRANCH  19  20
ATOM     20  OG  SER A   1      11.436  13.047  -8.450  1.00  0.00    -0.394 OA
ATOM     21  H   UNL     1      11.446  13.936  -8.892  1.00  0.00     0.210 HD
ENDBRANCH  19  20
ENDBRANCH  15  19
ENDBRANCH  12  15
ENDBRANCH  10  11
BRANCH  10  22
ATOM     22  CB  PHE A   2      15.612   9.773  -4.889  1.00  0.00     0.070 C 
BRANCH  22  23
ATOM     23  CG  PHE A   2      14.441   9.290  -4.091  1.00  0.00    -0.045 A 
ATOM     24  CD1 PHE A   2      13.902  10.047  -3.033  1.00  0.00     0.004 A 
ATOM     25  CD2 PHE A   2      13.967   7.990  -4.310  1.00  0.00     0.004 A 
ATOM     26  CE1 PHE A   2      12.868   9.536  -2.260  1.00  0.00     0.000 A 
ATOM     27  CE2 PHE A   2      12.939   7.477  -3.520  1.00  0.00     0.000 A 
ATOM     28  CZ  PHE A   2      12.386   8.252  -2.501  1.00  0.00     0.000 A 
ENDBRANCH  22  23
ENDBRANCH  10  22
ENDBRANCH   7  10
ENDBRANCH   5   6
BRANCH   5  29
ATOM     29  CB  VAL A   3      20.207  12.263  -5.211  1.00  0.00     0.015 C 
ATOM     30  CG1 VAL A   3      20.428  11.689  -3.797  1.00  0.00     0.010 C 
ATOM     31  CG2 VAL A   3      19.629  13.682  -5.110  1.00  0.00     0.010 C 
ENDBRANCH   5  29
ENDBRANCH   1   5
BRANCH   3  32
ATOM     32  CA  ALA A   4      21.340   8.747  -8.151  1.00  0.00     0.168 C 
ATOM     33  CB  ALA A   4      20.663   8.006  -9.294  1.00  0.00     0.041 C 
BRANCH  32  34
ATOM     34  C   ALA A   4      22.708   9.199  -8.529  1.00  0.00     0.242 C 
ATOM     35  N   ARG A   5      23.816   8.706  -7.790  1.00  0.00    -0.343 N 
ATOM     36  O   ALA A   4      22.874  10.026  -9.467  1.00  0.00    -0.273 OA
ATOM     37  H   UNL     1      23.661   7.983  -7.049  1.00  0.00     0.164 HD
BRANCH  35  38
ATOM     38  CA  ARG A   5      25.180   9.117  -8.072  1.00  0.00     0.171 C 
BRANCH  38  39
ATOM     39  C   ARG A   5      25.901   7.967  -8.686  1.00  0.00     0.243 C 
ATOM     40  N   ASN A   6      25.916   7.866 -10.103  1.00  0.00    -0.341 N 
ATOM     41  O   ARG A   5      26.449   7.087  -7.970  1.00  0.00    -0.273 OA
ATOM     42  H   UNL     1      25.496   8.651 -10.651  1.00  0.00     0.164 HD
BRANCH  40  43
ATOM     43  CA  ASN A   6      26.543   6.751 -10.804  1.00  0.00     0.201 C 
BRANCH  43  44
ATOM     44  C   ASN A   6      27.994   6.642 -10.417  1.00  0.00     0.326 C 
ATOM     45  O   ASN A   6      28.795   7.579 -10.677  1.00  0.00    -0.250 OA
BRANCH  44  46
ATOM     46  OXT ASN A   6      28.453   5.498  -9.772  1.00  0.00    -0.480 OA
ATOM     47  H   UNL     1      29.426   5.407  -9.504  1.00  0.00     0.296 HD
ENDBRANCH  44  46
ENDBRANCH  43  44
BRANCH  43  48
ATOM     48  CB  ASN A   6      26.424   6.946 -12.323  1.00  0.00     0.136 C 
BRANCH  48  49
ATOM     49  CG  ASN A   6      25.009   7.181 -12.772  1.00  0.00     0.220 C 
ATOM     50  ND2 ASN A   6      24.753   8.089 -13.834  1.00  0.00    -0.370 N 
ATOM     51  OD1 ASN A   6      24.051   6.563 -12.238  1.00  0.00    -0.275 OA
ATOM     52  H   UNL     1      23.775   8.258 -14.156  1.00  0.00     0.159 HD
ATOM     53  H   UNL     1      25.533   8.595 -14.309  1.00  0.00     0.159 HD
ENDBRANCH  48  49
ENDBRANCH  43  48
ENDBRANCH  40  43
ENDBRANCH  38  39
BRANCH  38  54
ATOM     54  CB  ARG A   5      25.855   9.600  -6.793  1.00  0.00     0.037 C 
BRANCH  54  55
ATOM     55  CG  ARG A   5      25.163  10.858  -6.270  1.00  0.00     0.024 C 
BRANCH  55  56
ATOM     56  CD  ARG A   5      25.839  11.389  -5.014  1.00  0.00     0.116 C 
BRANCH  56  57
ATOM     57  NE  ARG A   5      25.376  10.687  -3.820  1.00  0.00    -0.357 N 
ATOM     58  CZ  ARG A   5      25.469  11.282  -2.527  1.00  0.00     0.185 C 
ATOM     59  NH2 ARG A   5      26.109  12.546  -2.352  1.00  0.00    -0.370 N 
ATOM     60  H   UNL     1      24.895   9.763  -3.911  1.00  0.00     0.163 HD
ATOM     61  H   UNL     1      26.084  13.022  -1.423  1.00  0.00     0.159 HD
ATOM     62  H   UNL     1      26.698  12.981  -3.094  1.00  0.00     0.159 HD
BRANCH  58  63
ATOM     63  NH1 ARG A   5      24.956  10.672  -1.506  1.00  0.00    -0.270 NA
ATOM     64  H   UNL     1      24.999  11.076  -0.544  1.00  0.00     0.191 HD
ENDBRANCH  58  63
ENDBRANCH  56  57
ENDBRANCH  55  56
ENDBRANCH  54  55
ENDBRANCH  38  54
ENDBRANCH  35  38
ENDBRANCH  32  34
ENDBRANCH   3  32
TORSDOF 25
