REMARK SMILES N=C(N)NCCC[C@H](NC(=O)[C@H](Cc1ccccc1)NC(=O)[C@H](CCC(N)=O)NC(=O)[C@H](Cc1ccccc1)NC(=O)[C@@H](N)CO)C(=O)N[C@@H](CC(N)=O)C(=O)O
REMARK SMILES IDX 21 1 22 2 20 3 23 5 29 6 30 7 31 8 32 10 40 11 41 12 42 13
REMARK SMILES IDX 43 15 44 16 45 19 46 20 33 22 34 23 35 24 39 25 36 26 38 27
REMARK SMILES IDX 37 28 24 29 25 30 26 31 27 32 28 33 12 36 10 37 9 38 11 39
REMARK SMILES IDX 8 41 47 42 49 43 48 44 50 46 55 47 56 48 57 49 51 51 52 52
REMARK SMILES IDX 53 53 54 54 7 57 6 58 5 59 4 60 2 61 3 62 1 66 13 68 14 69
REMARK SMILES IDX 15 70 19 71 16 72 18 73 17 74
REMARK H PARENT 20 4 29 9 40 14 44 17 44 18 46 21 27 34 27 35 9 40 49 45 57 50
REMARK H PARENT 53 55 53 56 4 63 3 64 3 65 1 67
ROOT
ATOM      1  C   GLN A   3      20.041  10.082  -6.471  1.00  0.00     0.243 C 
ATOM      2  O   GLN A   3      20.158   9.166  -5.611  1.00  0.00    -0.273 OA
ATOM      3  N   PHE A   4      20.566   9.913  -7.779  1.00  0.00    -0.342 N 
ATOM      4  H   UNL     1      20.405  10.653  -8.500  1.00  0.00     0.164 HD
ENDROOT
BRANCH   1   5
ATOM      5  CA  GLN A   3      19.338  11.357  -6.143  1.00  0.00     0.171 C 
BRANCH   5   6
ATOM      6  N   GLN A   3      18.086  11.048  -5.502  1.00  0.00    -0.342 N 
ATOM      7  C   PHE A   2      16.885  11.750  -5.773  1.00  0.00     0.243 C 
ATOM      8  O   PHE A   2      16.901  12.793  -6.484  1.00  0.00    -0.273 OA
ATOM      9  H   UNL     1      18.160  10.505  -4.617  1.00  0.00     0.164 HD
BRANCH   7  10
ATOM     10  CA  PHE A   2      15.650  11.314  -5.059  1.00  0.00     0.175 C 
BRANCH  10  11
ATOM     11  N   PHE A   2      14.453  11.741  -5.769  1.00  0.00    -0.343 N 
ATOM     12  C   SER A   1      13.915  13.051  -5.637  1.00  0.00     0.239 C 
ATOM     13  O   SER A   1      14.443  13.871  -4.836  1.00  0.00    -0.273 OA
ATOM     14  H   UNL     1      13.864  11.002  -6.209  1.00  0.00     0.164 HD
BRANCH  12  15
ATOM     15  CA  SER A   1      12.661  13.411  -6.389  1.00  0.00     0.167 C 
BRANCH  15  16
ATOM     16  N   SER A   1      12.471  14.863  -6.377  1.00  0.00    -0.318 NA
ATOM     17  H   UNL     1      13.202  15.318  -6.972  1.00  0.00     0.119 HD
ATOM     18  H   UNL     1      11.539  15.087  -6.794  1.00  0.00     0.119 HD
ENDBRANCH  15  16
BRANCH  15  19
ATOM     19  CB  SER A   1      12.687  12.879  -7.845  1.00  0.00     0.184 C 
BRANCH  19  20
ATOM     20  OG  SER A   1      11.436  13.047  -8.452  1.00  0.00    -0.394 OA
ATOM     21  H   UNL     1      10.832  12.367  -8.054  1.00  0.00     0.210 HD
ENDBRANCH  19  20
ENDBRANCH  15  19
ENDBRANCH  12  15
ENDBRANCH  10  11
BRANCH  10  22
ATOM     22  CB  PHE A   2      15.612   9.774  -4.891  1.00  0.00     0.070 C 
BRANCH  22  23
ATOM     23  CG  PHE A   2      14.443   9.289  -4.090  1.00  0.00    -0.045 A 
ATOM     24  CD1 PHE A   2      13.903  10.047  -3.033  1.00  0.00     0.004 A 
ATOM     25  CD2 PHE A   2      13.968   7.990  -4.310  1.00  0.00     0.004 A 
ATOM     26  CE1 PHE A   2      12.869   9.535  -2.260  1.00  0.00     0.000 A 
ATOM     27  CE2 PHE A   2      12.939   7.477  -3.521  1.00  0.00     0.000 A 
ATOM     28  CZ  PHE A   2      12.386   8.252  -2.502  1.00  0.00     0.000 A 
ENDBRANCH  22  23
ENDBRANCH  10  22
ENDBRANCH   7  10
ENDBRANCH   5   6
BRANCH   5  29
ATOM     29  CB  GLN A   3      20.190  12.254  -5.239  1.00  0.00     0.045 C 
BRANCH  29  30
ATOM     30  CG  GLN A   3      20.399  11.721  -3.805  1.00  0.00     0.102 C 
BRANCH  30  31
ATOM     31  CD  GLN A   3      21.773  12.052  -3.323  1.00  0.00     0.217 C 
ATOM     32  NE2 GLN A   3      22.131  13.395  -3.000  1.00  0.00    -0.370 N 
ATOM     33  OE1 GLN A   3      22.624  11.133  -3.221  1.00  0.00    -0.275 OA
ATOM     34  H   UNL     1      21.434  14.167  -3.088  1.00  0.00     0.159 HD
ATOM     35  H   UNL     1      23.098  13.619  -2.676  1.00  0.00     0.159 HD
ENDBRANCH  30  31
ENDBRANCH  29  30
ENDBRANCH   5  29
ENDBRANCH   1   5
BRANCH   3  36
ATOM     36  CA  PHE A   4      21.351   8.748  -8.144  1.00  0.00     0.175 C 
BRANCH  36  37
ATOM     37  C   PHE A   4      22.715   9.205  -8.526  1.00  0.00     0.243 C 
ATOM     38  N   ARG A   5      23.823   8.715  -7.786  1.00  0.00    -0.343 N 
ATOM     39  O   PHE A   4      22.877  10.026  -9.470  1.00  0.00    -0.273 OA
ATOM     40  H   UNL     1      23.669   8.014  -7.026  1.00  0.00     0.164 HD
BRANCH  38  41
ATOM     41  CA  ARG A   5      25.186   9.121  -8.073  1.00  0.00     0.171 C 
BRANCH  41  42
ATOM     42  C   ARG A   5      25.901   7.968  -8.686  1.00  0.00     0.243 C 
ATOM     43  N   ASN A   6      25.914   7.864 -10.103  1.00  0.00    -0.341 N 
ATOM     44  O   ARG A   5      26.448   7.086  -7.970  1.00  0.00    -0.273 OA
ATOM     45  H   UNL     1      25.490   8.647 -10.651  1.00  0.00     0.164 HD
BRANCH  43  46
ATOM     46  CA  ASN A   6      26.543   6.751 -10.805  1.00  0.00     0.201 C 
BRANCH  46  47
ATOM     47  C   ASN A   6      27.993   6.642 -10.415  1.00  0.00     0.326 C 
ATOM     48  O   ASN A   6      28.795   7.578 -10.676  1.00  0.00    -0.250 OA
BRANCH  47  49
ATOM     49  OXT ASN A   6      28.450   5.499  -9.766  1.00  0.00    -0.480 OA
ATOM     50  H   UNL     1      29.422   5.409  -9.496  1.00  0.00     0.296 HD
ENDBRANCH  47  49
ENDBRANCH  46  47
BRANCH  46  51
ATOM     51  CB  ASN A   6      26.429   6.950 -12.324  1.00  0.00     0.136 C 
BRANCH  51  52
ATOM     52  CG  ASN A   6      25.017   7.186 -12.776  1.00  0.00     0.220 C 
ATOM     53  ND2 ASN A   6      24.759   8.093 -13.838  1.00  0.00    -0.370 N 
ATOM     54  OD1 ASN A   6      24.061   6.570 -12.241  1.00  0.00    -0.275 OA
ATOM     55  H   UNL     1      25.539   8.599 -14.313  1.00  0.00     0.159 HD
ATOM     56  H   UNL     1      23.780   8.261 -14.159  1.00  0.00     0.159 HD
ENDBRANCH  51  52
ENDBRANCH  46  51
ENDBRANCH  43  46
ENDBRANCH  41  42
BRANCH  41  57
ATOM     57  CB  ARG A   5      25.862   9.605  -6.795  1.00  0.00     0.037 C 
BRANCH  57  58
ATOM     58  CG  ARG A   5      25.162  10.857  -6.267  1.00  0.00     0.024 C 
BRANCH  58  59
ATOM     59  CD  ARG A   5      25.842  11.394  -5.015  1.00  0.00     0.116 C 
BRANCH  59  60
ATOM     60  NE  ARG A   5      25.405  10.677  -3.820  1.00  0.00    -0.357 N 
ATOM     61  CZ  ARG A   5      25.487  11.276  -2.524  1.00  0.00     0.185 C 
ATOM     62  NH2 ARG A   5      26.106  12.548  -2.351  1.00  0.00    -0.370 N 
ATOM     63  H   UNL     1      24.965   9.733  -3.914  1.00  0.00     0.163 HD
ATOM     64  H   UNL     1      26.689  12.993  -3.091  1.00  0.00     0.159 HD
ATOM     65  H   UNL     1      26.070  13.019  -1.419  1.00  0.00     0.159 HD
BRANCH  61  66
ATOM     66  NH1 ARG A   5      24.980  10.674  -1.496  1.00  0.00    -0.270 NA
ATOM     67  H   UNL     1      24.512   9.744  -1.576  1.00  0.00     0.191 HD
ENDBRANCH  61  66
ENDBRANCH  59  60
ENDBRANCH  58  59
ENDBRANCH  57  58
ENDBRANCH  41  57
ENDBRANCH  38  41
ENDBRANCH  36  37
BRANCH  36  68
ATOM     68  CB  PHE A   4      20.660   7.989  -9.280  1.00  0.00     0.070 C 
BRANCH  68  69
ATOM     69  CG  PHE A   4      21.387   6.751  -9.776  1.00  0.00    -0.045 A 
ATOM     70  CD1 PHE A   4      22.158   5.923  -8.932  1.00  0.00     0.004 A 
ATOM     71  CD2 PHE A   4      21.112   6.305 -11.083  1.00  0.00     0.004 A 
ATOM     72  CE1 PHE A   4      22.688   4.720  -9.409  1.00  0.00     0.000 A 
ATOM     73  CE2 PHE A   4      21.617   5.085 -11.543  1.00  0.00     0.000 A 
ATOM     74  CZ  PHE A   4      22.416   4.300 -10.711  1.00  0.00     0.000 A 
ENDBRANCH  68  69
ENDBRANCH  36  68
ENDBRANCH   3  36
TORSDOF 29
