REMARK SMILES CC(C)[C@H](NC(=O)[C@H](Cc1ccccc1)NC(=O)[C@@H](N)CO)C(=O)N[C@@H](CO)C(=O)N[C@@H](CCCNC(=N)N)C(=O)N[C@@H](CC(N)=O)C(=O)O
REMARK SMILES IDX 23 1 24 2 25 3 4 5 5 6 6 7 7 8 8 10 16 11 17 12 18 13 19 15
REMARK SMILES IDX 20 16 21 19 22 20 9 22 10 23 11 24 15 25 12 26 14 27 13 28
REMARK SMILES IDX 2 29 1 30 3 31 26 32 29 33 31 34 30 35 32 37 40 38 42 39
REMARK SMILES IDX 41 40 43 42 48 43 49 44 50 45 44 47 45 48 46 49 47 50 33 53
REMARK SMILES IDX 34 54 35 55 36 56 37 57 39 58 38 62 27 64 28 65
REMARK H PARENT 25 4 5 9 16 14 20 17 20 18 22 21 31 36 42 41 50 46 46 51 46 52
REMARK H PARENT 36 59 39 60 39 61 38 63 28 66
ROOT
ATOM      1  C   VAL A   3      20.048  10.087  -6.466  1.00  0.00     0.243 C 
ATOM      2  O   VAL A   3      20.162   9.170  -5.605  1.00  0.00    -0.273 OA
ATOM      3  N   SER A   4      20.560   9.911  -7.778  1.00  0.00    -0.340 N 
ATOM      4  H   UNL     1      20.397  10.652  -8.498  1.00  0.00     0.164 HD
ENDROOT
BRANCH   1   5
ATOM      5  CA  VAL A   3      19.349  11.366  -6.134  1.00  0.00     0.174 C 
BRANCH   5   6
ATOM      6  N   VAL A   3      18.091  11.046  -5.507  1.00  0.00    -0.342 N 
ATOM      7  C   PHE A   2      16.886  11.745  -5.777  1.00  0.00     0.243 C 
ATOM      8  O   PHE A   2      16.897  12.785  -6.492  1.00  0.00    -0.273 OA
ATOM      9  H   UNL     1      18.163  10.470  -4.643  1.00  0.00     0.164 HD
BRANCH   7  10
ATOM     10  CA  PHE A   2      15.652  11.311  -5.059  1.00  0.00     0.175 C 
BRANCH  10  11
ATOM     11  N   PHE A   2      14.455  11.739  -5.768  1.00  0.00    -0.343 N 
ATOM     12  C   SER A   1      13.917  13.048  -5.633  1.00  0.00     0.239 C 
ATOM     13  O   SER A   1      14.449  13.866  -4.832  1.00  0.00    -0.273 OA
ATOM     14  H   UNL     1      13.870  11.000  -6.216  1.00  0.00     0.164 HD
BRANCH  12  15
ATOM     15  CA  SER A   1      12.661  13.412  -6.387  1.00  0.00     0.167 C 
BRANCH  15  16
ATOM     16  N   SER A   1      12.458  14.862  -6.397  1.00  0.00    -0.318 NA
ATOM     17  H   UNL     1      12.292  15.192  -5.418  1.00  0.00     0.119 HD
ATOM     18  H   UNL     1      13.319  15.337  -6.757  1.00  0.00     0.119 HD
ENDBRANCH  15  16
BRANCH  15  19
ATOM     19  CB  SER A   1      12.690  12.888  -7.841  1.00  0.00     0.184 C 
BRANCH  19  20
ATOM     20  OG  SER A   1      11.437  13.050  -8.444  1.00  0.00    -0.394 OA
ATOM     21  H   UNL     1      11.385  13.993  -8.750  1.00  0.00     0.210 HD
ENDBRANCH  19  20
ENDBRANCH  15  19
ENDBRANCH  12  15
ENDBRANCH  10  11
BRANCH  10  22
ATOM     22  CB  PHE A   2      15.612   9.772  -4.889  1.00  0.00     0.070 C 
BRANCH  22  23
ATOM     23  CG  PHE A   2      14.442   9.289  -4.091  1.00  0.00    -0.045 A 
ATOM     24  CD1 PHE A   2      13.902  10.047  -3.033  1.00  0.00     0.004 A 
ATOM     25  CD2 PHE A   2      13.967   7.989  -4.310  1.00  0.00     0.004 A 
ATOM     26  CE1 PHE A   2      12.868   9.536  -2.260  1.00  0.00     0.000 A 
ATOM     27  CE2 PHE A   2      12.939   7.477  -3.520  1.00  0.00     0.000 A 
ATOM     28  CZ  PHE A   2      12.386   8.252  -2.501  1.00  0.00     0.000 A 
ENDBRANCH  22  23
ENDBRANCH  10  22
ENDBRANCH   7  10
ENDBRANCH   5   6
BRANCH   5  29
ATOM     29  CB  VAL A   3      20.207  12.263  -5.211  1.00  0.00     0.015 C 
ATOM     30  CG1 VAL A   3      20.428  11.689  -3.797  1.00  0.00     0.010 C 
ATOM     31  CG2 VAL A   3      19.629  13.682  -5.110  1.00  0.00     0.010 C 
ENDBRANCH   5  29
ENDBRANCH   1   5
BRANCH   3  32
ATOM     32  CA  SER A   4      21.341   8.747  -8.151  1.00  0.00     0.197 C 
BRANCH  32  33
ATOM     33  C   SER A   4      22.709   9.201  -8.528  1.00  0.00     0.245 C 
ATOM     34  N   ARG A   5      23.817   8.706  -7.790  1.00  0.00    -0.342 N 
ATOM     35  O   SER A   4      22.875  10.028  -9.466  1.00  0.00    -0.273 OA
ATOM     36  H   UNL     1      23.662   7.983  -7.051  1.00  0.00     0.164 HD
BRANCH  34  37
ATOM     37  CA  ARG A   5      25.181   9.117  -8.072  1.00  0.00     0.171 C 
BRANCH  37  38
ATOM     38  C   ARG A   5      25.901   7.968  -8.686  1.00  0.00     0.243 C 
ATOM     39  N   ASN A   6      25.916   7.866 -10.103  1.00  0.00    -0.341 N 
ATOM     40  O   ARG A   5      26.449   7.087  -7.970  1.00  0.00    -0.273 OA
ATOM     41  H   UNL     1      25.495   8.651 -10.651  1.00  0.00     0.164 HD
BRANCH  39  42
ATOM     42  CA  ASN A   6      26.543   6.751 -10.804  1.00  0.00     0.201 C 
BRANCH  42  43
ATOM     43  C   ASN A   6      27.994   6.642 -10.417  1.00  0.00     0.326 C 
ATOM     44  O   ASN A   6      28.795   7.579 -10.677  1.00  0.00    -0.250 OA
BRANCH  43  45
ATOM     45  OXT ASN A   6      28.453   5.497  -9.772  1.00  0.00    -0.480 OA
ATOM     46  H   UNL     1      29.426   5.407  -9.504  1.00  0.00     0.296 HD
ENDBRANCH  43  45
ENDBRANCH  42  43
BRANCH  42  47
ATOM     47  CB  ASN A   6      26.424   6.946 -12.323  1.00  0.00     0.136 C 
BRANCH  47  48
ATOM     48  CG  ASN A   6      25.009   7.181 -12.772  1.00  0.00     0.220 C 
ATOM     49  ND2 ASN A   6      24.753   8.089 -13.834  1.00  0.00    -0.370 N 
ATOM     50  OD1 ASN A   6      24.051   6.563 -12.237  1.00  0.00    -0.275 OA
ATOM     51  H   UNL     1      23.775   8.258 -14.156  1.00  0.00     0.159 HD
ATOM     52  H   UNL     1      25.533   8.595 -14.309  1.00  0.00     0.159 HD
ENDBRANCH  47  48
ENDBRANCH  42  47
ENDBRANCH  39  42
ENDBRANCH  37  38
BRANCH  37  53
ATOM     53  CB  ARG A   5      25.856   9.600  -6.793  1.00  0.00     0.037 C 
BRANCH  53  54
ATOM     54  CG  ARG A   5      25.163  10.858  -6.270  1.00  0.00     0.024 C 
BRANCH  54  55
ATOM     55  CD  ARG A   5      25.839  11.389  -5.014  1.00  0.00     0.116 C 
BRANCH  55  56
ATOM     56  NE  ARG A   5      25.376  10.687  -3.820  1.00  0.00    -0.357 N 
ATOM     57  CZ  ARG A   5      25.469  11.282  -2.527  1.00  0.00     0.185 C 
ATOM     58  NH2 ARG A   5      26.109  12.546  -2.352  1.00  0.00    -0.370 N 
ATOM     59  H   UNL     1      24.895   9.763  -3.911  1.00  0.00     0.163 HD
ATOM     60  H   UNL     1      26.698  12.981  -3.094  1.00  0.00     0.159 HD
ATOM     61  H   UNL     1      26.084  13.022  -1.423  1.00  0.00     0.159 HD
BRANCH  57  62
ATOM     62  NH1 ARG A   5      24.956  10.672  -1.506  1.00  0.00    -0.270 NA
ATOM     63  H   UNL     1      24.999  11.076  -0.544  1.00  0.00     0.191 HD
ENDBRANCH  57  62
ENDBRANCH  55  56
ENDBRANCH  54  55
ENDBRANCH  53  54
ENDBRANCH  37  53
ENDBRANCH  34  37
ENDBRANCH  32  33
BRANCH  32  64
ATOM     64  CB  SER A   4      20.658   8.003  -9.297  1.00  0.00     0.191 C 
BRANCH  64  65
ATOM     65  OG  SER A   4      21.398   6.870  -9.668  1.00  0.00    -0.394 OA
ATOM     66  H   UNL     1      21.242   6.185  -8.966  1.00  0.00     0.210 HD
ENDBRANCH  64  65
ENDBRANCH  32  64
ENDBRANCH   3  32
TORSDOF 27
