REMARK SMILES CC(C)C[C@H](NC(=O)[C@H](Cc1ccccc1)NC(=O)[C@@H](N)Cc1c[nH]cn1)C(=O)N[C@@H](CO)C(=O)N[C@@H](CCCNC(=N)N)C(=O)N[C@@H](CC(N)=O)C(=O)O
REMARK SMILES IDX 28 1 29 2 30 3 5 5 6 6 7 7 8 8 9 10 17 11 18 12 19 13 20 15
REMARK SMILES IDX 21 16 22 19 23 20 27 21 24 22 26 23 25 24 10 26 11 27 12 28
REMARK SMILES IDX 16 29 13 30 15 31 14 32 4 33 2 34 1 35 3 36 31 37 34 38
REMARK SMILES IDX 36 39 35 40 37 42 45 43 47 44 46 45 48 47 53 48 54 49 55 50
REMARK SMILES IDX 49 52 50 53 51 54 52 55 38 58 39 59 40 60 41 61 42 62 44 63
REMARK SMILES IDX 43 67 32 69 33 70
REMARK H PARENT 30 4 6 9 17 14 21 17 21 18 25 25 36 41 47 46 55 51 51 56 51 57
REMARK H PARENT 41 64 44 65 44 66 43 68 33 71
ROOT
ATOM      1  C   LEU A   3      20.071  10.082  -6.442  1.00  0.00     0.243 C 
ATOM      2  O   LEU A   3      20.204   9.182  -5.570  1.00  0.00    -0.273 OA
ATOM      3  N   SER A   4      20.569   9.902  -7.760  1.00  0.00    -0.340 N 
ATOM      4  H   UNL     1      20.402  10.641  -8.483  1.00  0.00     0.164 HD
ENDROOT
BRANCH   1   5
ATOM      5  CA  LEU A   3      19.340  11.338  -6.134  1.00  0.00     0.171 C 
BRANCH   5   6
ATOM      6  N   LEU A   3      18.092  11.024  -5.502  1.00  0.00    -0.343 N 
ATOM      7  C   PHE A   2      16.896  11.744  -5.763  1.00  0.00     0.243 C 
ATOM      8  O   PHE A   2      16.920  12.790  -6.471  1.00  0.00    -0.273 OA
ATOM      9  H   UNL     1      18.160  10.394  -4.681  1.00  0.00     0.164 HD
BRANCH   7  10
ATOM     10  CA  PHE A   2      15.653  11.317  -5.063  1.00  0.00     0.175 C 
BRANCH  10  11
ATOM     11  N   PHE A   2      14.482  11.755  -5.805  1.00  0.00    -0.343 N 
ATOM     12  C   HIS A   1      13.906  13.046  -5.623  1.00  0.00     0.237 C 
ATOM     13  O   HIS A   1      14.431  13.854  -4.809  1.00  0.00    -0.273 OA
ATOM     14  H   UNL     1      14.158  11.140  -6.581  1.00  0.00     0.164 HD
BRANCH  12  15
ATOM     15  CA  HIS A   1      12.646  13.422  -6.370  1.00  0.00     0.147 C 
BRANCH  15  16
ATOM     16  N   HIS A   1      12.497  14.879  -6.395  1.00  0.00    -0.320 NA
ATOM     17  H   UNL     1      12.388  15.222  -5.412  1.00  0.00     0.119 HD
ATOM     18  H   UNL     1      11.591  15.113  -6.863  1.00  0.00     0.119 HD
ENDBRANCH  15  16
BRANCH  15  19
ATOM     19  CB  HIS A   1      12.657  12.873  -7.825  1.00  0.00     0.086 C 
BRANCH  19  20
ATOM     20  CG  HIS A   1      11.884  11.589  -8.013  1.00  0.00     0.060 A 
ATOM     21  ND1 HIS A   1      11.442  11.177  -9.219  1.00  0.00    -0.242 NA
ATOM     22  CD2 HIS A   1      11.585  10.627  -7.064  1.00  0.00     0.107 A 
ATOM     23  CE1 HIS A   1      10.868   9.981  -8.974  1.00  0.00     0.196 A 
ATOM     24  NE2 HIS A   1      10.942   9.623  -7.679  1.00  0.00    -0.351 N 
ATOM     25  H   UNL     1      10.583   8.745  -7.245  1.00  0.00     0.167 HD
ENDBRANCH  19  20
ENDBRANCH  15  19
ENDBRANCH  12  15
ENDBRANCH  10  11
BRANCH  10  26
ATOM     26  CB  PHE A   2      15.597   9.778  -4.896  1.00  0.00     0.070 C 
BRANCH  26  27
ATOM     27  CG  PHE A   2      14.428   9.298  -4.100  1.00  0.00    -0.045 A 
ATOM     28  CD1 PHE A   2      13.894  10.052  -3.038  1.00  0.00     0.004 A 
ATOM     29  CD2 PHE A   2      13.960   7.994  -4.314  1.00  0.00     0.004 A 
ATOM     30  CE1 PHE A   2      12.866   9.537  -2.259  1.00  0.00     0.000 A 
ATOM     31  CE2 PHE A   2      12.937   7.478  -3.520  1.00  0.00     0.000 A 
ATOM     32  CZ  PHE A   2      12.386   8.252  -2.500  1.00  0.00     0.000 A 
ENDBRANCH  26  27
ENDBRANCH  10  26
ENDBRANCH   7  10
ENDBRANCH   5   6
BRANCH   5  33
ATOM     33  CB  LEU A   3      20.159  12.342  -5.313  1.00  0.00     0.038 C 
BRANCH  33  34
ATOM     34  CG  LEU A   3      20.434  12.204  -3.789  1.00  0.00    -0.015 C 
ATOM     35  CD1 LEU A   3      21.823  11.746  -3.387  1.00  0.00     0.007 C 
ATOM     36  CD2 LEU A   3      19.303  11.894  -2.821  1.00  0.00     0.007 C 
ENDBRANCH  33  34
ENDBRANCH   5  33
ENDBRANCH   1   5
BRANCH   3  37
ATOM     37  CA  SER A   4      21.343   8.739  -8.144  1.00  0.00     0.197 C 
BRANCH  37  38
ATOM     38  C   SER A   4      22.709   9.194  -8.527  1.00  0.00     0.245 C 
ATOM     39  N   ARG A   5      23.819   8.705  -7.788  1.00  0.00    -0.342 N 
ATOM     40  O   SER A   4      22.872  10.023  -9.465  1.00  0.00    -0.273 OA
ATOM     41  H   UNL     1      23.666   7.983  -7.047  1.00  0.00     0.164 HD
BRANCH  39  42
ATOM     42  CA  ARG A   5      25.181   9.117  -8.072  1.00  0.00     0.171 C 
BRANCH  42  43
ATOM     43  C   ARG A   5      25.902   7.968  -8.686  1.00  0.00     0.243 C 
ATOM     44  N   ASN A   6      25.916   7.866 -10.103  1.00  0.00    -0.341 N 
ATOM     45  O   ARG A   5      26.450   7.087  -7.970  1.00  0.00    -0.273 OA
ATOM     46  H   UNL     1      25.496   8.651 -10.651  1.00  0.00     0.164 HD
BRANCH  44  47
ATOM     47  CA  ASN A   6      26.543   6.751 -10.804  1.00  0.00     0.201 C 
BRANCH  47  48
ATOM     48  C   ASN A   6      27.994   6.642 -10.417  1.00  0.00     0.326 C 
ATOM     49  O   ASN A   6      28.795   7.579 -10.677  1.00  0.00    -0.250 OA
BRANCH  48  50
ATOM     50  OXT ASN A   6      28.453   5.497  -9.772  1.00  0.00    -0.480 OA
ATOM     51  H   UNL     1      29.426   5.407  -9.504  1.00  0.00     0.296 HD
ENDBRANCH  48  50
ENDBRANCH  47  48
BRANCH  47  52
ATOM     52  CB  ASN A   6      26.424   6.946 -12.323  1.00  0.00     0.136 C 
BRANCH  52  53
ATOM     53  CG  ASN A   6      25.009   7.181 -12.772  1.00  0.00     0.220 C 
ATOM     54  ND2 ASN A   6      24.753   8.089 -13.834  1.00  0.00    -0.370 N 
ATOM     55  OD1 ASN A   6      24.051   6.563 -12.237  1.00  0.00    -0.275 OA
ATOM     56  H   UNL     1      25.533   8.595 -14.309  1.00  0.00     0.159 HD
ATOM     57  H   UNL     1      23.775   8.258 -14.156  1.00  0.00     0.159 HD
ENDBRANCH  52  53
ENDBRANCH  47  52
ENDBRANCH  44  47
ENDBRANCH  42  43
BRANCH  42  58
ATOM     58  CB  ARG A   5      25.856   9.601  -6.793  1.00  0.00     0.037 C 
BRANCH  58  59
ATOM     59  CG  ARG A   5      25.161  10.858  -6.270  1.00  0.00     0.024 C 
BRANCH  59  60
ATOM     60  CD  ARG A   5      25.837  11.390  -5.014  1.00  0.00     0.116 C 
BRANCH  60  61
ATOM     61  NE  ARG A   5      25.375  10.686  -3.820  1.00  0.00    -0.357 N 
ATOM     62  CZ  ARG A   5      25.468  11.281  -2.526  1.00  0.00     0.185 C 
ATOM     63  NH2 ARG A   5      26.108  12.546  -2.352  1.00  0.00    -0.370 N 
ATOM     64  H   UNL     1      24.890   9.765  -3.911  1.00  0.00     0.163 HD
ATOM     65  H   UNL     1      26.081  13.023  -1.423  1.00  0.00     0.159 HD
ATOM     66  H   UNL     1      26.696  12.982  -3.094  1.00  0.00     0.159 HD
BRANCH  62  67
ATOM     67  NH1 ARG A   5      24.954  10.672  -1.506  1.00  0.00    -0.270 NA
ATOM     68  H   UNL     1      24.996  11.076  -0.544  1.00  0.00     0.191 HD
ENDBRANCH  62  67
ENDBRANCH  60  61
ENDBRANCH  59  60
ENDBRANCH  58  59
ENDBRANCH  42  58
ENDBRANCH  39  42
ENDBRANCH  37  38
BRANCH  37  69
ATOM     69  CB  SER A   4      20.662   8.001  -9.295  1.00  0.00     0.191 C 
BRANCH  69  70
ATOM     70  OG  SER A   4      19.427   7.480  -8.882  1.00  0.00    -0.394 OA
ATOM     71  H   UNL     1      18.772   8.224  -8.928  1.00  0.00     0.210 HD
ENDBRANCH  69  70
ENDBRANCH  37  69
ENDBRANCH   3  37
TORSDOF 28
