REMARK SMILES C[C@H](NC(=O)[C@H](Cc1ccccc1)NC(=O)[C@@H](N)CO)C(=O)N[C@@H](CCC(N)=O)C(=O)N[C@@H](CCCNC(=N)N)C(=O)N[C@@H](CC(N)=O)C(=O)O
REMARK SMILES IDX 21 1 22 2 23 3 2 5 1 6 3 7 4 8 5 9 6 11 14 12 15 13 16 14
REMARK SMILES IDX 17 16 18 17 19 20 20 21 7 23 8 24 9 25 13 26 10 27 12 28
REMARK SMILES IDX 11 29 24 30 30 31 32 32 31 33 33 35 41 36 43 37 42 38 44 40
REMARK SMILES IDX 49 41 50 42 51 43 45 45 46 46 47 47 48 48 34 51 35 52 36 53
REMARK SMILES IDX 37 54 38 55 40 56 39 60 25 62 26 63 27 64 28 65 29 66
REMARK H PARENT 23 4 3 10 14 15 18 18 18 19 20 22 32 34 43 39 51 44 47 49
REMARK H PARENT 47 50 37 57 40 58 40 59 39 61 28 67 28 68
ROOT
ATOM      1  C   ALA A   3      20.047  10.099  -6.463  1.00  0.00     0.242 C 
ATOM      2  O   ALA A   3      20.177   9.198  -5.587  1.00  0.00    -0.273 OA
ATOM      3  N   GLN A   4      20.557   9.915  -7.775  1.00  0.00    -0.343 N 
ATOM      4  H   UNL     1      20.385  10.648  -8.501  1.00  0.00     0.164 HD
ENDROOT
BRANCH   1   5
ATOM      5  CA  ALA A   3      19.341  11.373  -6.147  1.00  0.00     0.168 C 
ATOM      6  CB  ALA A   3      20.180  12.245  -5.222  1.00  0.00     0.041 C 
BRANCH   5   7
ATOM      7  N   ALA A   3      18.095  11.059  -5.496  1.00  0.00    -0.343 N 
ATOM      8  C   PHE A   2      16.888  11.752  -5.774  1.00  0.00     0.243 C 
ATOM      9  O   PHE A   2      16.900  12.792  -6.488  1.00  0.00    -0.273 OA
ATOM     10  H   UNL     1      18.188  10.556  -4.586  1.00  0.00     0.164 HD
BRANCH   8  11
ATOM     11  CA  PHE A   2      15.652  11.314  -5.060  1.00  0.00     0.175 C 
BRANCH  11  12
ATOM     12  N   PHE A   2      14.453  11.740  -5.769  1.00  0.00    -0.343 N 
ATOM     13  C   SER A   1      13.915  13.050  -5.636  1.00  0.00     0.239 C 
ATOM     14  O   SER A   1      14.449  13.869  -4.839  1.00  0.00    -0.273 OA
ATOM     15  H   UNL     1      13.862  11.000  -6.207  1.00  0.00     0.164 HD
BRANCH  13  16
ATOM     16  CA  SER A   1      12.655  13.410  -6.383  1.00  0.00     0.167 C 
BRANCH  16  17
ATOM     17  N   SER A   1      12.467  14.862  -6.382  1.00  0.00    -0.318 NA
ATOM     18  H   UNL     1      11.581  15.087  -6.890  1.00  0.00     0.119 HD
ATOM     19  H   UNL     1      12.304  15.174  -5.396  1.00  0.00     0.119 HD
ENDBRANCH  16  17
BRANCH  16  20
ATOM     20  CB  SER A   1      12.695  12.893  -7.842  1.00  0.00     0.184 C 
BRANCH  20  21
ATOM     21  OG  SER A   1      11.440  13.037  -8.449  1.00  0.00    -0.394 OA
ATOM     22  H   UNL     1      10.855  12.333  -8.065  1.00  0.00     0.210 HD
ENDBRANCH  20  21
ENDBRANCH  16  20
ENDBRANCH  13  16
ENDBRANCH  11  12
BRANCH  11  23
ATOM     23  CB  PHE A   2      15.618   9.775  -4.891  1.00  0.00     0.070 C 
BRANCH  23  24
ATOM     24  CG  PHE A   2      14.449   9.289  -4.089  1.00  0.00    -0.045 A 
ATOM     25  CD1 PHE A   2      13.906  10.047  -3.033  1.00  0.00     0.004 A 
ATOM     26  CD2 PHE A   2      13.972   7.990  -4.310  1.00  0.00     0.004 A 
ATOM     27  CE1 PHE A   2      12.870   9.536  -2.261  1.00  0.00     0.000 A 
ATOM     28  CE2 PHE A   2      12.941   7.478  -3.522  1.00  0.00     0.000 A 
ATOM     29  CZ  PHE A   2      12.387   8.253  -2.503  1.00  0.00     0.000 A 
ENDBRANCH  23  24
ENDBRANCH  11  23
ENDBRANCH   8  11
ENDBRANCH   5   7
ENDBRANCH   1   5
BRANCH   3  30
ATOM     30  CA  GLN A   4      21.344   8.755  -8.141  1.00  0.00     0.171 C 
BRANCH  30  31
ATOM     31  C   GLN A   4      22.710   9.213  -8.520  1.00  0.00     0.243 C 
ATOM     32  N   ARG A   5      23.820   8.712  -7.789  1.00  0.00    -0.343 N 
ATOM     33  O   GLN A   4      22.874  10.033  -9.465  1.00  0.00    -0.273 OA
ATOM     34  H   UNL     1      23.666   7.993  -7.045  1.00  0.00     0.164 HD
BRANCH  32  35
ATOM     35  CA  ARG A   5      25.183   9.119  -8.073  1.00  0.00     0.171 C 
BRANCH  35  36
ATOM     36  C   ARG A   5      25.902   7.969  -8.686  1.00  0.00     0.243 C 
ATOM     37  N   ASN A   6      25.914   7.865 -10.103  1.00  0.00    -0.341 N 
ATOM     38  O   ARG A   5      26.450   7.088  -7.970  1.00  0.00    -0.273 OA
ATOM     39  H   UNL     1      25.488   8.647 -10.651  1.00  0.00     0.164 HD
BRANCH  37  40
ATOM     40  CA  ASN A   6      26.543   6.751 -10.804  1.00  0.00     0.201 C 
BRANCH  40  41
ATOM     41  C   ASN A   6      27.993   6.642 -10.416  1.00  0.00     0.326 C 
ATOM     42  O   ASN A   6      28.794   7.579 -10.677  1.00  0.00    -0.250 OA
BRANCH  41  43
ATOM     43  OXT ASN A   6      28.452   5.499  -9.769  1.00  0.00    -0.480 OA
ATOM     44  H   UNL     1      29.424   5.409  -9.500  1.00  0.00     0.296 HD
ENDBRANCH  41  43
ENDBRANCH  40  41
BRANCH  40  45
ATOM     45  CB  ASN A   6      26.425   6.947 -12.323  1.00  0.00     0.136 C 
BRANCH  45  46
ATOM     46  CG  ASN A   6      25.011   7.180 -12.773  1.00  0.00     0.220 C 
ATOM     47  ND2 ASN A   6      24.754   8.090 -13.833  1.00  0.00    -0.370 N 
ATOM     48  OD1 ASN A   6      24.054   6.558 -12.243  1.00  0.00    -0.275 OA
ATOM     49  H   UNL     1      25.533   8.600 -14.306  1.00  0.00     0.159 HD
ATOM     50  H   UNL     1      23.775   8.258 -14.157  1.00  0.00     0.159 HD
ENDBRANCH  45  46
ENDBRANCH  40  45
ENDBRANCH  37  40
ENDBRANCH  35  36
BRANCH  35  51
ATOM     51  CB  ARG A   5      25.859   9.602  -6.794  1.00  0.00     0.037 C 
BRANCH  51  52
ATOM     52  CG  ARG A   5      25.166  10.860  -6.272  1.00  0.00     0.024 C 
BRANCH  52  53
ATOM     53  CD  ARG A   5      25.841  11.390  -5.015  1.00  0.00     0.116 C 
BRANCH  53  54
ATOM     54  NE  ARG A   5      25.378  10.684  -3.823  1.00  0.00    -0.357 N 
ATOM     55  CZ  ARG A   5      25.468  11.279  -2.527  1.00  0.00     0.185 C 
ATOM     56  NH2 ARG A   5      26.106  12.541  -2.350  1.00  0.00    -0.370 N 
ATOM     57  H   UNL     1      24.903   9.757  -3.921  1.00  0.00     0.163 HD
ATOM     58  H   UNL     1      26.084  13.006  -1.415  1.00  0.00     0.159 HD
ATOM     59  H   UNL     1      26.693  12.983  -3.091  1.00  0.00     0.159 HD
BRANCH  55  60
ATOM     60  NH1 ARG A   5      24.959  10.678  -1.500  1.00  0.00    -0.270 NA
ATOM     61  H   UNL     1      24.478   9.755  -1.583  1.00  0.00     0.191 HD
ENDBRANCH  55  60
ENDBRANCH  53  54
ENDBRANCH  52  53
ENDBRANCH  51  52
ENDBRANCH  35  51
ENDBRANCH  32  35
ENDBRANCH  30  31
BRANCH  30  62
ATOM     62  CB  GLN A   4      20.655   7.993  -9.279  1.00  0.00     0.045 C 
BRANCH  62  63
ATOM     63  CG  GLN A   4      21.451   6.769  -9.760  1.00  0.00     0.102 C 
BRANCH  63  64
ATOM     64  CD  GLN A   4      21.758   5.807  -8.645  1.00  0.00     0.217 C 
ATOM     65  NE2 GLN A   4      23.107   5.440  -8.353  1.00  0.00    -0.370 N 
ATOM     66  OE1 GLN A   4      20.817   5.300  -7.978  1.00  0.00    -0.275 OA
ATOM     67  H   UNL     1      23.315   4.780  -7.572  1.00  0.00     0.159 HD
ATOM     68  H   UNL     1      23.898   5.818  -8.919  1.00  0.00     0.159 HD
ENDBRANCH  63  64
ENDBRANCH  62  63
ENDBRANCH  30  62
ENDBRANCH   3  30
TORSDOF 27
