REMARK SMILES CC(C)C[C@H](NC(=O)[C@H](CCCCN)NC(=O)[C@H](Cc1ccccc1)NC(=O)CN)C(=O)N[C@@H](CCCNC(=N)N)C(=O)N[C@@H](CC(N)=O)C(=O)O
REMARK SMILES IDX 5 1 6 2 7 3 8 4 9 6 15 7 16 8 17 9 18 11 26 12 27 13 28 14
REMARK SMILES IDX 29 16 30 17 19 20 20 21 21 22 25 23 22 24 24 25 23 26 10 27
REMARK SMILES IDX 11 28 12 29 13 30 14 31 31 34 33 35 32 36 34 38 42 39 44 40
REMARK SMILES IDX 43 41 45 43 50 44 51 45 52 46 46 48 47 49 48 50 49 51 35 54
REMARK SMILES IDX 36 55 37 56 38 57 39 58 41 59 40 63 4 65 2 66 1 67 3 68
REMARK H PARENT 6 5 15 10 26 15 30 18 30 19 14 32 14 33 33 37 44 42 52 47
REMARK H PARENT 48 52 48 53 38 60 41 61 41 62 40 64
ROOT
ATOM      1  CA  LEU A   4      21.349   8.758  -8.143  1.00  0.00     0.171 C 
ENDROOT
BRANCH   1   2
ATOM      2  N   LEU A   4      20.564   9.919  -7.777  1.00  0.00    -0.343 N 
ATOM      3  C   LYS A   3      20.033  10.078  -6.473  1.00  0.00     0.243 C 
ATOM      4  O   LYS A   3      20.147   9.158  -5.617  1.00  0.00    -0.273 OA
ATOM      5  H   UNL     1      20.406  10.662  -8.496  1.00  0.00     0.164 HD
BRANCH   3   6
ATOM      6  CA  LYS A   3      19.337  11.353  -6.141  1.00  0.00     0.171 C 
BRANCH   6   7
ATOM      7  N   LYS A   3      18.086  11.050  -5.494  1.00  0.00    -0.343 N 
ATOM      8  C   PHE A   2      16.887  11.753  -5.777  1.00  0.00     0.243 C 
ATOM      9  O   PHE A   2      16.911  12.796  -6.485  1.00  0.00    -0.273 OA
ATOM     10  H   UNL     1      18.157  10.513  -4.605  1.00  0.00     0.164 HD
BRANCH   8  11
ATOM     11  CA  PHE A   2      15.640  11.320  -5.083  1.00  0.00     0.175 C 
BRANCH  11  12
ATOM     12  N   PHE A   2      14.463  11.769  -5.817  1.00  0.00    -0.343 N 
ATOM     13  C   GLY A   1      13.902  13.060  -5.617  1.00  0.00     0.234 C 
ATOM     14  O   GLY A   1      14.432  13.864  -4.802  1.00  0.00    -0.274 OA
ATOM     15  H   UNL     1      14.068  11.161  -6.571  1.00  0.00     0.164 HD
BRANCH  13  16
ATOM     16  CA  GLY A   1      12.656  13.429  -6.360  1.00  0.00     0.178 C 
BRANCH  16  17
ATOM     17  N   GLY A   1      12.484  14.875  -6.399  1.00  0.00    -0.322 NA
ATOM     18  H   UNL     1      11.682  15.083  -7.037  1.00  0.00     0.119 HD
ATOM     19  H   UNL     1      12.192  15.197  -5.447  1.00  0.00     0.119 HD
ENDBRANCH  16  17
ENDBRANCH  13  16
ENDBRANCH  11  12
BRANCH  11  20
ATOM     20  CB  PHE A   2      15.589   9.781  -4.922  1.00  0.00     0.070 C 
BRANCH  20  21
ATOM     21  CG  PHE A   2      14.434   9.295  -4.102  1.00  0.00    -0.045 A 
ATOM     22  CD1 PHE A   2      13.901  10.051  -3.040  1.00  0.00     0.004 A 
ATOM     23  CD2 PHE A   2      13.964   7.992  -4.313  1.00  0.00     0.004 A 
ATOM     24  CE1 PHE A   2      12.872   9.538  -2.260  1.00  0.00     0.000 A 
ATOM     25  CE2 PHE A   2      12.941   7.478  -3.519  1.00  0.00     0.000 A 
ATOM     26  CZ  PHE A   2      12.389   8.254  -2.499  1.00  0.00     0.000 A 
ENDBRANCH  20  21
ENDBRANCH  11  20
ENDBRANCH   8  11
ENDBRANCH   6   7
BRANCH   6  27
ATOM     27  CB  LYS A   3      20.202  12.239  -5.243  1.00  0.00     0.035 C 
BRANCH  27  28
ATOM     28  CG  LYS A   3      20.413  11.695  -3.813  1.00  0.00     0.004 C 
BRANCH  28  29
ATOM     29  CD  LYS A   3      21.774  12.135  -3.271  1.00  0.00     0.015 C 
BRANCH  29  30
ATOM     30  CE  LYS A   3      21.941  11.835  -1.770  1.00  0.00     0.077 C 
BRANCH  30  31
ATOM     31  NZ  LYS A   3      20.949  12.513  -0.934  1.00  0.00    -0.330 NA
ATOM     32  H   UNL     1      20.044  11.991  -0.975  1.00  0.00     0.118 HD
ATOM     33  H   UNL     1      20.791  13.485  -1.287  1.00  0.00     0.118 HD
ENDBRANCH  30  31
ENDBRANCH  29  30
ENDBRANCH  28  29
ENDBRANCH  27  28
ENDBRANCH   6  27
ENDBRANCH   3   6
ENDBRANCH   1   2
BRANCH   1  34
ATOM     34  C   LEU A   4      22.714   9.215  -8.522  1.00  0.00     0.243 C 
ATOM     35  N   ARG A   5      23.823   8.720  -7.786  1.00  0.00    -0.343 N 
ATOM     36  O   LEU A   4      22.878  10.032  -9.469  1.00  0.00    -0.273 OA
ATOM     37  H   UNL     1      23.667   8.031  -7.015  1.00  0.00     0.164 HD
BRANCH  35  38
ATOM     38  CA  ARG A   5      25.186   9.122  -8.073  1.00  0.00     0.171 C 
BRANCH  38  39
ATOM     39  C   ARG A   5      25.900   7.968  -8.685  1.00  0.00     0.243 C 
ATOM     40  N   ASN A   6      25.913   7.864 -10.102  1.00  0.00    -0.341 N 
ATOM     41  O   ARG A   5      26.447   7.087  -7.969  1.00  0.00    -0.273 OA
ATOM     42  H   UNL     1      25.488   8.647 -10.651  1.00  0.00     0.164 HD
BRANCH  40  43
ATOM     43  CA  ASN A   6      26.542   6.751 -10.804  1.00  0.00     0.201 C 
BRANCH  43  44
ATOM     44  C   ASN A   6      27.993   6.642 -10.416  1.00  0.00     0.326 C 
ATOM     45  O   ASN A   6      28.794   7.579 -10.677  1.00  0.00    -0.250 OA
BRANCH  44  46
ATOM     46  OXT ASN A   6      28.451   5.499  -9.768  1.00  0.00    -0.480 OA
ATOM     47  H   UNL     1      29.424   5.409  -9.499  1.00  0.00     0.296 HD
ENDBRANCH  44  46
ENDBRANCH  43  44
BRANCH  43  48
ATOM     48  CB  ASN A   6      26.424   6.946 -12.323  1.00  0.00     0.136 C 
BRANCH  48  49
ATOM     49  CG  ASN A   6      25.010   7.180 -12.773  1.00  0.00     0.220 C 
ATOM     50  ND2 ASN A   6      24.753   8.090 -13.833  1.00  0.00    -0.370 N 
ATOM     51  OD1 ASN A   6      24.053   6.558 -12.243  1.00  0.00    -0.275 OA
ATOM     52  H   UNL     1      25.533   8.600 -14.306  1.00  0.00     0.159 HD
ATOM     53  H   UNL     1      23.775   8.258 -14.156  1.00  0.00     0.159 HD
ENDBRANCH  48  49
ENDBRANCH  43  48
ENDBRANCH  40  43
ENDBRANCH  38  39
BRANCH  38  54
ATOM     54  CB  ARG A   5      25.863   9.606  -6.796  1.00  0.00     0.037 C 
BRANCH  54  55
ATOM     55  CG  ARG A   5      25.165  10.861  -6.272  1.00  0.00     0.024 C 
BRANCH  55  56
ATOM     56  CD  ARG A   5      25.838  11.394  -5.015  1.00  0.00     0.116 C 
BRANCH  56  57
ATOM     57  NE  ARG A   5      25.379  10.684  -3.825  1.00  0.00    -0.357 N 
ATOM     58  CZ  ARG A   5      25.478  11.272  -2.527  1.00  0.00     0.185 C 
ATOM     59  NH2 ARG A   5      26.103  12.541  -2.349  1.00  0.00    -0.370 N 
ATOM     60  H   UNL     1      24.900   9.759  -3.924  1.00  0.00     0.163 HD
ATOM     61  H   UNL     1      26.082  13.002  -1.412  1.00  0.00     0.159 HD
ATOM     62  H   UNL     1      26.675  12.995  -3.094  1.00  0.00     0.159 HD
BRANCH  58  63
ATOM     63  NH1 ARG A   5      24.991  10.658  -1.497  1.00  0.00    -0.270 NA
ATOM     64  H   UNL     1      24.521   9.729  -1.580  1.00  0.00     0.191 HD
ENDBRANCH  58  63
ENDBRANCH  56  57
ENDBRANCH  55  56
ENDBRANCH  54  55
ENDBRANCH  38  54
ENDBRANCH  35  38
ENDBRANCH   1  34
BRANCH   1  65
ATOM     65  CB  LEU A   4      20.656   7.998  -9.274  1.00  0.00     0.038 C 
BRANCH  65  66
ATOM     66  CG  LEU A   4      21.449   6.769  -9.770  1.00  0.00    -0.015 C 
ATOM     67  CD1 LEU A   4      21.762   5.778  -8.639  1.00  0.00     0.007 C 
ATOM     68  CD2 LEU A   4      20.662   6.066 -10.878  1.00  0.00     0.007 C 
ENDBRANCH  65  66
ENDBRANCH   1  65
TORSDOF 29
