REMARK SMILES CC(C)C[C@H](NC(=O)[C@@H](NC(=O)[C@H](CCC(N)=O)NC(=O)[C@@H](N)CO)C(C)C)C(=O)N[C@@H](CCCNC(=N)N)C(=O)N[C@@H](CC(N)=O)C(=O)O
REMARK SMILES IDX 7 1 8 2 6 3 9 5 10 6 11 7 12 8 13 10 19 11 20 12 21 13 22 15
REMARK SMILES IDX 23 16 24 19 25 20 14 22 15 23 16 24 17 25 18 26 26 29 27 30
REMARK SMILES IDX 28 31 5 32 29 33 31 34 30 35 32 37 40 38 42 39 41 40 43 42
REMARK SMILES IDX 48 43 49 44 50 45 44 47 45 48 46 49 47 50 33 53 34 54 35 55
REMARK SMILES IDX 36 56 37 57 39 58 38 62 4 64 2 65 1 66 3 67
REMARK H PARENT 6 4 10 9 19 14 23 17 23 18 25 21 17 27 17 28 31 36 42 41 50 46
REMARK H PARENT 46 51 46 52 36 59 39 60 39 61 38 63
ROOT
ATOM      1  C   VAL A   3       1.681  -1.263  -0.017  1.00  0.00     0.243 C 
ATOM      2  O   VAL A   3       2.067  -0.490   0.902  1.00  0.00    -0.273 OA
ATOM      3  N   LEU A   4       0.372  -1.109  -0.585  1.00  0.00    -0.343 N 
ATOM      4  H   UNL     1       0.073  -1.789  -1.319  1.00  0.00     0.164 HD
ENDROOT
BRANCH   1   5
ATOM      5  CA  VAL A   3       2.587  -2.365  -0.508  1.00  0.00     0.174 C 
BRANCH   5   6
ATOM      6  N   VAL A   3       3.957  -2.166  -0.019  1.00  0.00    -0.342 N 
ATOM      7  C   GLN A   2       4.925  -1.389  -0.740  1.00  0.00     0.243 C 
ATOM      8  O   GLN A   2       4.680  -0.990  -1.913  1.00  0.00    -0.273 OA
ATOM      9  H   UNL     1       4.184  -2.423   0.969  1.00  0.00     0.164 HD
BRANCH   7  10
ATOM     10  CA  GLN A   2       6.215  -0.995  -0.064  1.00  0.00     0.171 C 
BRANCH  10  11
ATOM     11  N   GLN A   2       7.279  -0.751  -1.046  1.00  0.00    -0.343 N 
ATOM     12  C   SER A   1       7.829  -1.809  -1.850  1.00  0.00     0.239 C 
ATOM     13  O   SER A   1       7.309  -2.957  -1.822  1.00  0.00    -0.273 OA
ATOM     14  H   UNL     1       7.729   0.191  -1.086  1.00  0.00     0.164 HD
BRANCH  12  15
ATOM     15  CA  SER A   1       9.013  -1.564  -2.754  1.00  0.00     0.167 C 
BRANCH  15  16
ATOM     16  N   SER A   1       8.697  -0.568  -3.781  1.00  0.00    -0.318 NA
ATOM     17  H   UNL     1       8.431   0.335  -3.330  1.00  0.00     0.119 HD
ATOM     18  H   UNL     1       7.868  -0.899  -4.324  1.00  0.00     0.119 HD
ENDBRANCH  15  16
BRANCH  15  19
ATOM     19  CB  SER A   1      10.246  -1.138  -1.948  1.00  0.00     0.184 C 
BRANCH  19  20
ATOM     20  OG  SER A   1      11.349  -1.019  -2.802  1.00  0.00    -0.394 OA
ATOM     21  H   UNL     1      12.108  -0.725  -2.234  1.00  0.00     0.210 HD
ENDBRANCH  19  20
ENDBRANCH  15  19
ENDBRANCH  12  15
ENDBRANCH  10  11
BRANCH  10  22
ATOM     22  CB  GLN A   2       6.013   0.224   0.861  1.00  0.00     0.045 C 
BRANCH  22  23
ATOM     23  CG  GLN A   2       5.364   1.430   0.157  1.00  0.00     0.102 C 
BRANCH  23  24
ATOM     24  CD  GLN A   2       5.385   2.634   1.051  1.00  0.00     0.217 C 
ATOM     25  NE2 GLN A   2       6.189   3.768   0.724  1.00  0.00    -0.370 N 
ATOM     26  OE1 GLN A   2       4.700   2.638   2.110  1.00  0.00    -0.275 OA
ATOM     27  H   UNL     1       6.767   3.782  -0.149  1.00  0.00     0.159 HD
ATOM     28  H   UNL     1       6.208   4.600   1.354  1.00  0.00     0.159 HD
ENDBRANCH  23  24
ENDBRANCH  22  23
ENDBRANCH  10  22
ENDBRANCH   7  10
ENDBRANCH   5   6
BRANCH   5  29
ATOM     29  CB  VAL A   3       2.045  -3.772  -0.133  1.00  0.00     0.015 C 
ATOM     30  CG1 VAL A   3       2.924  -4.876  -0.737  1.00  0.00     0.010 C 
ATOM     31  CG2 VAL A   3       1.886  -3.989   1.382  1.00  0.00     0.010 C 
ENDBRANCH   5  29
ENDBRANCH   1   5
BRANCH   3  32
ATOM     32  CA  LEU A   4      -0.507   0.019  -0.251  1.00  0.00     0.171 C 
BRANCH  32  33
ATOM     33  C   LEU A   4      -1.970  -0.368  -0.334  1.00  0.00     0.243 C 
ATOM     34  N   ARG A   5      -2.990   0.580   0.020  1.00  0.00    -0.343 N 
ATOM     35  O   LEU A   4      -2.295  -1.543  -0.662  1.00  0.00    -0.273 OA
ATOM     36  H   UNL     1      -2.690   1.501   0.411  1.00  0.00     0.164 HD
BRANCH  34  37
ATOM     37  CA  ARG A   5      -4.414   0.222   0.074  1.00  0.00     0.171 C 
BRANCH  37  38
ATOM     38  C   ARG A   5      -5.282   1.333  -0.467  1.00  0.00     0.243 C 
ATOM     39  N   ASN A   6      -6.631   1.042  -0.857  1.00  0.00    -0.341 N 
ATOM     40  O   ARG A   5      -4.850   2.517  -0.521  1.00  0.00    -0.273 OA
ATOM     41  H   UNL     1      -6.921   0.039  -0.902  1.00  0.00     0.164 HD
BRANCH  39  42
ATOM     42  CA  ASN A   6      -7.607   2.099  -1.149  1.00  0.00     0.201 C 
BRANCH  42  43
ATOM     43  C   ASN A   6      -7.921   2.894   0.090  1.00  0.00     0.326 C 
ATOM     44  O   ASN A   6      -7.930   2.339   1.224  1.00  0.00    -0.250 OA
BRANCH  43  45
ATOM     45  OXT ASN A   6      -8.249   4.242  -0.021  1.00  0.00    -0.480 OA
ATOM     46  H   UNL     1      -8.475   4.790   0.802  1.00  0.00     0.296 HD
ENDBRANCH  43  45
ENDBRANCH  42  43
BRANCH  42  47
ATOM     47  CB  ASN A   6      -8.890   1.525  -1.787  1.00  0.00     0.136 C 
BRANCH  47  48
ATOM     48  CG  ASN A   6      -9.600   0.532  -0.907  1.00  0.00     0.220 C 
ATOM     49  ND2 ASN A   6      -9.448  -0.871  -1.133  1.00  0.00    -0.370 N 
ATOM     50  OD1 ASN A   6     -10.323   0.934   0.042  1.00  0.00    -0.275 OA
ATOM     51  H   UNL     1      -8.893  -1.224  -1.948  1.00  0.00     0.159 HD
ATOM     52  H   UNL     1      -9.848  -1.560  -0.459  1.00  0.00     0.159 HD
ENDBRANCH  47  48
ENDBRANCH  42  47
ENDBRANCH  39  42
ENDBRANCH  37  38
BRANCH  37  53
ATOM     53  CB  ARG A   5      -4.824  -0.158   1.513  1.00  0.00     0.037 C 
BRANCH  53  54
ATOM     54  CG  ARG A   5      -4.637   0.984   2.530  1.00  0.00     0.024 C 
BRANCH  54  55
ATOM     55  CD  ARG A   5      -5.148   0.579   3.915  1.00  0.00     0.116 C 
BRANCH  55  56
ATOM     56  NE  ARG A   5      -4.954   1.661   4.881  1.00  0.00    -0.357 N 
ATOM     57  CZ  ARG A   5      -5.343   1.533   6.255  1.00  0.00     0.185 C 
ATOM     58  NH2 ARG A   5      -5.115   2.618   7.158  1.00  0.00    -0.370 N 
ATOM     59  H   UNL     1      -4.527   2.562   4.571  1.00  0.00     0.163 HD
ATOM     60  H   UNL     1      -5.377   2.541   8.165  1.00  0.00     0.159 HD
ATOM     61  H   UNL     1      -4.671   3.502   6.822  1.00  0.00     0.159 HD
BRANCH  57  62
ATOM     62  NH1 ARG A   5      -5.895   0.440   6.680  1.00  0.00    -0.270 NA
ATOM     63  H   UNL     1      -6.184   0.323   7.677  1.00  0.00     0.191 HD
ENDBRANCH  57  62
ENDBRANCH  55  56
ENDBRANCH  54  55
ENDBRANCH  53  54
ENDBRANCH  37  53
ENDBRANCH  34  37
ENDBRANCH  32  33
BRANCH  32  64
ATOM     64  CB  LEU A   4      -0.144   1.276  -1.089  1.00  0.00     0.038 C 
BRANCH  64  65
ATOM     65  CG  LEU A   4      -0.102   1.152  -2.638  1.00  0.00    -0.015 C 
ATOM     66  CD1 LEU A   4      -1.372   0.543  -3.245  1.00  0.00     0.007 C 
ATOM     67  CD2 LEU A   4       1.159   0.441  -3.155  1.00  0.00     0.007 C 
ENDBRANCH  64  65
ENDBRANCH  32  64
ENDBRANCH   3  32
TORSDOF 28
