REMARK SMILES CC(C)C[C@H](NC(=O)[C@H](CCCCN)NC(=O)[C@H](Cc1ccccc1)NC(=O)[C@@H](N)CO)C(=O)N[C@@H](Cc1c[nH]cn1)C(=O)N[C@@H](CC(N)=O)C(=O)O
REMARK SMILES IDX 7 1 8 2 6 3 9 5 15 6 16 7 17 8 18 10 26 11 27 12 28 13 29 15
REMARK SMILES IDX 30 16 31 19 32 20 19 22 20 23 21 24 25 25 22 26 24 27 23 28
REMARK SMILES IDX 10 29 11 30 12 31 13 32 14 33 5 36 33 37 35 38 34 39 36 41
REMARK SMILES IDX 43 42 45 43 44 44 46 46 51 47 52 48 53 49 47 51 48 52 49 53
REMARK SMILES IDX 50 54 37 57 38 58 42 59 39 60 41 61 40 62 4 64 2 65 1 66
REMARK SMILES IDX 3 67
REMARK H PARENT 6 4 15 9 26 14 30 17 30 18 32 21 14 34 14 35 35 40 45 45 53 50
REMARK H PARENT 49 55 49 56 40 63
ROOT
ATOM      1  C   LYS A   3      20.039  10.084  -6.470  1.00  0.00     0.243 C 
ATOM      2  O   LYS A   3      20.153   9.163  -5.614  1.00  0.00    -0.273 OA
ATOM      3  N   LEU A   4      20.565   9.921  -7.776  1.00  0.00    -0.343 N 
ATOM      4  H   UNL     1      20.405  10.663  -8.496  1.00  0.00     0.164 HD
ENDROOT
BRANCH   1   5
ATOM      5  CA  LYS A   3      19.334  11.356  -6.141  1.00  0.00     0.171 C 
BRANCH   5   6
ATOM      6  N   LYS A   3      18.084  11.046  -5.501  1.00  0.00    -0.343 N 
ATOM      7  C   PHE A   2      16.883  11.749  -5.773  1.00  0.00     0.243 C 
ATOM      8  O   PHE A   2      16.900  12.792  -6.483  1.00  0.00    -0.273 OA
ATOM      9  H   UNL     1      18.160  10.509  -4.612  1.00  0.00     0.164 HD
BRANCH   7  10
ATOM     10  CA  PHE A   2      15.648  11.313  -5.060  1.00  0.00     0.175 C 
BRANCH  10  11
ATOM     11  N   PHE A   2      14.451  11.740  -5.769  1.00  0.00    -0.343 N 
ATOM     12  C   SER A   1      13.914  13.051  -5.636  1.00  0.00     0.239 C 
ATOM     13  O   SER A   1      14.449  13.870  -4.839  1.00  0.00    -0.273 OA
ATOM     14  H   UNL     1      13.858  11.001  -6.206  1.00  0.00     0.164 HD
BRANCH  12  15
ATOM     15  CA  SER A   1      12.654  13.411  -6.383  1.00  0.00     0.167 C 
BRANCH  15  16
ATOM     16  N   SER A   1      12.467  14.863  -6.382  1.00  0.00    -0.318 NA
ATOM     17  H   UNL     1      12.304  15.175  -5.397  1.00  0.00     0.119 HD
ATOM     18  H   UNL     1      11.581  15.088  -6.891  1.00  0.00     0.119 HD
ENDBRANCH  15  16
BRANCH  15  19
ATOM     19  CB  SER A   1      12.694  12.894  -7.842  1.00  0.00     0.184 C 
BRANCH  19  20
ATOM     20  OG  SER A   1      11.440  13.037  -8.449  1.00  0.00    -0.394 OA
ATOM     21  H   UNL     1      10.855  12.332  -8.065  1.00  0.00     0.210 HD
ENDBRANCH  19  20
ENDBRANCH  15  19
ENDBRANCH  12  15
ENDBRANCH  10  11
BRANCH  10  22
ATOM     22  CB  PHE A   2      15.611   9.773  -4.892  1.00  0.00     0.070 C 
BRANCH  22  23
ATOM     23  CG  PHE A   2      14.443   9.289  -4.090  1.00  0.00    -0.045 A 
ATOM     24  CD1 PHE A   2      13.903  10.046  -3.033  1.00  0.00     0.004 A 
ATOM     25  CD2 PHE A   2      13.968   7.989  -4.310  1.00  0.00     0.004 A 
ATOM     26  CE1 PHE A   2      12.868   9.535  -2.260  1.00  0.00     0.000 A 
ATOM     27  CE2 PHE A   2      12.939   7.477  -3.520  1.00  0.00     0.000 A 
ATOM     28  CZ  PHE A   2      12.386   8.252  -2.501  1.00  0.00     0.000 A 
ENDBRANCH  22  23
ENDBRANCH  10  22
ENDBRANCH   7  10
ENDBRANCH   5   6
BRANCH   5  29
ATOM     29  CB  LYS A   3      20.179  12.258  -5.238  1.00  0.00     0.035 C 
BRANCH  29  30
ATOM     30  CG  LYS A   3      20.412  11.716  -3.808  1.00  0.00     0.004 C 
BRANCH  30  31
ATOM     31  CD  LYS A   3      21.809  12.057  -3.282  1.00  0.00     0.015 C 
BRANCH  31  32
ATOM     32  CE  LYS A   3      21.981  13.523  -2.856  1.00  0.00     0.077 C 
BRANCH  32  33
ATOM     33  NZ  LYS A   3      22.124  14.399  -4.017  1.00  0.00    -0.330 NA
ATOM     34  H   UNL     1      22.686  15.232  -3.727  1.00  0.00     0.118 HD
ATOM     35  H   UNL     1      21.180  14.769  -4.270  1.00  0.00     0.118 HD
ENDBRANCH  32  33
ENDBRANCH  31  32
ENDBRANCH  30  31
ENDBRANCH  29  30
ENDBRANCH   5  29
ENDBRANCH   1   5
BRANCH   3  36
ATOM     36  CA  LEU A   4      21.349   8.760  -8.142  1.00  0.00     0.171 C 
BRANCH  36  37
ATOM     37  C   LEU A   4      22.714   9.217  -8.521  1.00  0.00     0.243 C 
ATOM     38  N   HIS A   5      23.822   8.735  -7.774  1.00  0.00    -0.342 N 
ATOM     39  O   LEU A   4      22.878  10.030  -9.471  1.00  0.00    -0.273 OA
ATOM     40  H   UNL     1      23.667   8.051  -6.999  1.00  0.00     0.164 HD
BRANCH  38  41
ATOM     41  CA  HIS A   5      25.184   9.135  -8.067  1.00  0.00     0.177 C 
BRANCH  41  42
ATOM     42  C   HIS A   5      25.898   7.975  -8.680  1.00  0.00     0.243 C 
ATOM     43  N   ASN A   6      25.911   7.868 -10.098  1.00  0.00    -0.340 N 
ATOM     44  O   HIS A   5      26.445   7.094  -7.964  1.00  0.00    -0.273 OA
ATOM     45  H   UNL     1      25.485   8.650 -10.648  1.00  0.00     0.164 HD
BRANCH  43  46
ATOM     46  CA  ASN A   6      26.540   6.754 -10.800  1.00  0.00     0.201 C 
BRANCH  46  47
ATOM     47  C   ASN A   6      27.991   6.644 -10.412  1.00  0.00     0.326 C 
ATOM     48  O   ASN A   6      28.794   7.579 -10.677  1.00  0.00    -0.250 OA
BRANCH  47  49
ATOM     49  OXT ASN A   6      28.448   5.502  -9.761  1.00  0.00    -0.480 OA
ATOM     50  H   UNL     1      29.420   5.411  -9.493  1.00  0.00     0.296 HD
ENDBRANCH  47  49
ENDBRANCH  46  47
BRANCH  46  51
ATOM     51  CB  ASN A   6      26.423   6.948 -12.320  1.00  0.00     0.136 C 
BRANCH  51  52
ATOM     52  CG  ASN A   6      25.010   7.181 -12.772  1.00  0.00     0.220 C 
ATOM     53  ND2 ASN A   6      24.754   8.090 -13.833  1.00  0.00    -0.370 N 
ATOM     54  OD1 ASN A   6      24.052   6.558 -12.243  1.00  0.00    -0.275 OA
ATOM     55  H   UNL     1      25.533   8.600 -14.305  1.00  0.00     0.159 HD
ATOM     56  H   UNL     1      23.775   8.256 -14.157  1.00  0.00     0.159 HD
ENDBRANCH  51  52
ENDBRANCH  46  51
ENDBRANCH  43  46
ENDBRANCH  41  42
BRANCH  41  57
ATOM     57  CB  HIS A   5      25.863   9.630  -6.791  1.00  0.00     0.093 C 
BRANCH  57  58
ATOM     58  CG  HIS A   5      25.208  10.866  -6.238  1.00  0.00     0.061 A 
ATOM     59  ND1 HIS A   5      24.496  11.751  -6.970  1.00  0.00    -0.242 NA
ATOM     60  CD2 HIS A   5      25.461  11.396  -4.993  1.00  0.00     0.107 A 
ATOM     61  CE1 HIS A   5      24.303  12.790  -6.131  1.00  0.00     0.196 A 
ATOM     62  NE2 HIS A   5      24.886  12.606  -4.932  1.00  0.00    -0.351 N 
ATOM     63  H   UNL     1      24.904  13.273  -4.129  1.00  0.00     0.167 HD
ENDBRANCH  57  58
ENDBRANCH  41  57
ENDBRANCH  38  41
ENDBRANCH  36  37
BRANCH  36  64
ATOM     64  CB  LEU A   4      20.656   7.999  -9.274  1.00  0.00     0.038 C 
BRANCH  64  65
ATOM     65  CG  LEU A   4      21.449   6.770  -9.769  1.00  0.00    -0.015 C 
ATOM     66  CD1 LEU A   4      21.764   5.779  -8.639  1.00  0.00     0.007 C 
ATOM     67  CD2 LEU A   4      20.662   6.066 -10.877  1.00  0.00     0.007 C 
ENDBRANCH  64  65
ENDBRANCH  36  64
ENDBRANCH   3  36
TORSDOF 28
