REMARK SMILES CC(C)C[C@H](NC(=O)[C@H](Cc1c[nH]cn1)NC(=O)[C@H](Cc1ccccc1)NC(=O)[C@@H](N)CO)C(=O)N[C@@H](Cc1c[nH]cn1)C(=O)N[C@@H](CC(N)=O)C(=O)O
REMARK SMILES IDX 7 1 8 2 6 3 9 5 16 6 17 7 18 8 19 10 27 11 28 12 29 13 30 15
REMARK SMILES IDX 31 16 32 19 33 20 20 22 21 23 22 24 26 25 23 26 25 27 24 28
REMARK SMILES IDX 10 29 11 30 15 31 12 32 14 33 13 34 5 36 34 37 36 38 35 39
REMARK SMILES IDX 37 41 44 42 46 43 45 44 47 46 52 47 53 48 54 49 48 51 49 52
REMARK SMILES IDX 50 53 51 54 38 57 39 58 43 59 40 60 42 61 41 62 4 64 2 65
REMARK SMILES IDX 1 66 3 67
REMARK H PARENT 6 4 16 9 27 14 31 17 31 18 33 21 13 35 36 40 46 45 54 50 50 55
REMARK H PARENT 50 56 41 63
ROOT
ATOM      1  C   HIS A   3      20.046  10.077  -6.468  1.00  0.00     0.243 C 
ATOM      2  O   HIS A   3      20.164   9.148  -5.627  1.00  0.00    -0.273 OA
ATOM      3  N   LEU A   4      20.566   9.923  -7.778  1.00  0.00    -0.342 N 
ATOM      4  H   UNL     1      20.403  10.668  -8.494  1.00  0.00     0.164 HD
ENDROOT
BRANCH   1   5
ATOM      5  CA  HIS A   3      19.344  11.343  -6.119  1.00  0.00     0.177 C 
BRANCH   5   6
ATOM      6  N   HIS A   3      18.079  11.036  -5.509  1.00  0.00    -0.342 N 
ATOM      7  C   PHE A   2      16.884  11.748  -5.778  1.00  0.00     0.243 C 
ATOM      8  O   PHE A   2      16.905  12.793  -6.484  1.00  0.00    -0.273 OA
ATOM      9  H   UNL     1      18.129  10.482  -4.638  1.00  0.00     0.164 HD
BRANCH   7  10
ATOM     10  CA  PHE A   2      15.649  11.312  -5.061  1.00  0.00     0.175 C 
BRANCH  10  11
ATOM     11  N   PHE A   2      14.453  11.741  -5.770  1.00  0.00    -0.343 N 
ATOM     12  C   SER A   1      13.916  13.050  -5.633  1.00  0.00     0.239 C 
ATOM     13  O   SER A   1      14.447  13.866  -4.832  1.00  0.00    -0.273 OA
ATOM     14  H   UNL     1      13.867  11.002  -6.217  1.00  0.00     0.164 HD
BRANCH  12  15
ATOM     15  CA  SER A   1      12.660  13.414  -6.388  1.00  0.00     0.167 C 
BRANCH  15  16
ATOM     16  N   SER A   1      12.457  14.863  -6.398  1.00  0.00    -0.318 NA
ATOM     17  H   UNL     1      13.318  15.338  -6.758  1.00  0.00     0.119 HD
ATOM     18  H   UNL     1      12.291  15.193  -5.419  1.00  0.00     0.119 HD
ENDBRANCH  15  16
BRANCH  15  19
ATOM     19  CB  SER A   1      12.690  12.890  -7.841  1.00  0.00     0.184 C 
BRANCH  19  20
ATOM     20  OG  SER A   1      11.436  13.050  -8.444  1.00  0.00    -0.394 OA
ATOM     21  H   UNL     1      11.383  13.993  -8.750  1.00  0.00     0.210 HD
ENDBRANCH  19  20
ENDBRANCH  15  19
ENDBRANCH  12  15
ENDBRANCH  10  11
BRANCH  10  22
ATOM     22  CB  PHE A   2      15.607   9.772  -4.892  1.00  0.00     0.070 C 
BRANCH  22  23
ATOM     23  CG  PHE A   2      14.438   9.290  -4.092  1.00  0.00    -0.045 A 
ATOM     24  CD1 PHE A   2      13.901  10.047  -3.034  1.00  0.00     0.004 A 
ATOM     25  CD2 PHE A   2      13.965   7.989  -4.310  1.00  0.00     0.004 A 
ATOM     26  CE1 PHE A   2      12.868   9.536  -2.259  1.00  0.00     0.000 A 
ATOM     27  CE2 PHE A   2      12.938   7.476  -3.519  1.00  0.00     0.000 A 
ATOM     28  CZ  PHE A   2      12.385   8.252  -2.500  1.00  0.00     0.000 A 
ENDBRANCH  22  23
ENDBRANCH  10  22
ENDBRANCH   7  10
ENDBRANCH   5   6
BRANCH   5  29
ATOM     29  CB  HIS A   3      20.183  12.228  -5.193  1.00  0.00     0.093 C 
BRANCH  29  30
ATOM     30  CG  HIS A   3      20.443  11.791  -3.759  1.00  0.00     0.061 A 
ATOM     31  ND1 HIS A   3      21.030  12.652  -2.899  1.00  0.00    -0.242 NA
ATOM     32  CD2 HIS A   3      20.210  10.597  -3.083  1.00  0.00     0.107 A 
ATOM     33  CE1 HIS A   3      21.139  11.977  -1.739  1.00  0.00     0.196 A 
ATOM     34  NE2 HIS A   3      20.650  10.731  -1.823  1.00  0.00    -0.351 N 
ATOM     35  H   UNL     1      20.613  10.017  -1.063  1.00  0.00     0.167 HD
ENDBRANCH  29  30
ENDBRANCH   5  29
ENDBRANCH   1   5
BRANCH   3  36
ATOM     36  CA  LEU A   4      21.351   8.762  -8.146  1.00  0.00     0.171 C 
BRANCH  36  37
ATOM     37  C   LEU A   4      22.716   9.220  -8.522  1.00  0.00     0.243 C 
ATOM     38  N   HIS A   5      23.824   8.740  -7.773  1.00  0.00    -0.342 N 
ATOM     39  O   LEU A   4      22.880  10.032  -9.473  1.00  0.00    -0.273 OA
ATOM     40  H   UNL     1      23.669   8.057  -6.997  1.00  0.00     0.164 HD
BRANCH  38  41
ATOM     41  CA  HIS A   5      25.188   9.139  -8.067  1.00  0.00     0.177 C 
BRANCH  41  42
ATOM     42  C   HIS A   5      25.900   7.978  -8.681  1.00  0.00     0.243 C 
ATOM     43  N   ASN A   6      25.911   7.870 -10.099  1.00  0.00    -0.340 N 
ATOM     44  O   HIS A   5      26.445   7.096  -7.964  1.00  0.00    -0.273 OA
ATOM     45  H   UNL     1      25.486   8.652 -10.648  1.00  0.00     0.164 HD
BRANCH  43  46
ATOM     46  CA  ASN A   6      26.540   6.754 -10.800  1.00  0.00     0.201 C 
BRANCH  46  47
ATOM     47  C   ASN A   6      27.991   6.644 -10.412  1.00  0.00     0.326 C 
ATOM     48  O   ASN A   6      28.794   7.579 -10.677  1.00  0.00    -0.250 OA
BRANCH  47  49
ATOM     49  OXT ASN A   6      28.447   5.502  -9.762  1.00  0.00    -0.480 OA
ATOM     50  H   UNL     1      29.420   5.411  -9.494  1.00  0.00     0.296 HD
ENDBRANCH  47  49
ENDBRANCH  46  47
BRANCH  46  51
ATOM     51  CB  ASN A   6      26.423   6.948 -12.320  1.00  0.00     0.136 C 
BRANCH  51  52
ATOM     52  CG  ASN A   6      25.010   7.181 -12.772  1.00  0.00     0.220 C 
ATOM     53  ND2 ASN A   6      24.753   8.090 -13.833  1.00  0.00    -0.370 N 
ATOM     54  OD1 ASN A   6      24.052   6.558 -12.243  1.00  0.00    -0.275 OA
ATOM     55  H   UNL     1      23.775   8.257 -14.157  1.00  0.00     0.159 HD
ATOM     56  H   UNL     1      25.533   8.600 -14.305  1.00  0.00     0.159 HD
ENDBRANCH  51  52
ENDBRANCH  46  51
ENDBRANCH  43  46
ENDBRANCH  41  42
BRANCH  41  57
ATOM     57  CB  HIS A   5      25.873   9.635  -6.794  1.00  0.00     0.093 C 
BRANCH  57  58
ATOM     58  CG  HIS A   5      25.165  10.832  -6.230  1.00  0.00     0.061 A 
ATOM     59  ND1 HIS A   5      24.502  10.830  -5.056  1.00  0.00    -0.242 NA
ATOM     60  CD2 HIS A   5      25.096  12.082  -6.805  1.00  0.00     0.107 A 
ATOM     61  CE1 HIS A   5      24.043  12.094  -4.942  1.00  0.00     0.196 A 
ATOM     62  NE2 HIS A   5      24.385  12.871  -5.987  1.00  0.00    -0.351 N 
ATOM     63  H   UNL     1      24.150  13.879  -6.127  1.00  0.00     0.167 HD
ENDBRANCH  57  58
ENDBRANCH  41  57
ENDBRANCH  38  41
ENDBRANCH  36  37
BRANCH  36  64
ATOM     64  CB  LEU A   4      20.658   8.001  -9.277  1.00  0.00     0.038 C 
BRANCH  64  65
ATOM     65  CG  LEU A   4      21.450   6.771  -9.771  1.00  0.00    -0.015 C 
ATOM     66  CD1 LEU A   4      21.764   5.780  -8.639  1.00  0.00     0.007 C 
ATOM     67  CD2 LEU A   4      20.662   6.066 -10.878  1.00  0.00     0.007 C 
ENDBRANCH  64  65
ENDBRANCH  36  64
ENDBRANCH   3  36
TORSDOF 25
