REMARK SMILES CC(C)C[C@H](NC(=O)CNC(=O)[C@@H](N)CO)C(=O)N[C@@H](CO)C(=O)N[C@@H](CCCNC(=N)N)C(=O)N[C@@H](CC(N)=O)C(=O)O
REMARK SMILES IDX 17 1 18 2 19 3 5 5 6 6 7 7 8 8 9 10 10 11 11 12 12 13 13 15
REMARK SMILES IDX 14 16 15 19 16 20 4 22 2 23 1 24 3 25 20 26 23 27 25 28
REMARK SMILES IDX 24 29 26 31 34 32 36 33 35 34 37 36 42 37 43 38 44 39 38 41
REMARK SMILES IDX 39 42 40 43 41 44 27 47 28 48 29 49 30 50 31 51 33 52 32 56
REMARK SMILES IDX 21 58 22 59
REMARK H PARENT 19 4 6 9 10 14 14 17 14 18 16 21 25 30 36 35 44 40 40 45 40 46
REMARK H PARENT 30 53 33 54 33 55 32 57 22 60
ROOT
ATOM      1  C   LEU A   3       1.748   2.428  -0.802  1.00  0.00     0.243 C 
ATOM      2  O   LEU A   3       1.126   3.508  -0.994  1.00  0.00    -0.273 OA
ATOM      3  N   SER A   4       1.016   1.201  -0.638  1.00  0.00    -0.340 N 
ATOM      4  H   UNL     1       1.527   0.341  -0.330  1.00  0.00     0.164 HD
ENDROOT
BRANCH   1   5
ATOM      5  CA  LEU A   3       3.258   2.461  -0.772  1.00  0.00     0.171 C 
BRANCH   5   6
ATOM      6  N   LEU A   3       3.789   1.856   0.454  1.00  0.00    -0.343 N 
ATOM      7  C   GLY A   2       5.106   2.156   0.945  1.00  0.00     0.240 C 
ATOM      8  O   GLY A   2       5.884   2.891   0.277  1.00  0.00    -0.273 OA
ATOM      9  H   UNL     1       3.165   1.271   1.058  1.00  0.00     0.164 HD
BRANCH   7  10
ATOM     10  CA  GLY A   2       5.572   1.590   2.250  1.00  0.00     0.216 C 
BRANCH  10  11
ATOM     11  N   GLY A   2       6.076   0.232   2.064  1.00  0.00    -0.346 N 
ATOM     12  C   SER A   1       7.358  -0.036   1.482  1.00  0.00     0.239 C 
ATOM     13  O   SER A   1       8.016   0.897   0.945  1.00  0.00    -0.273 OA
ATOM     14  H   UNL     1       5.500  -0.563   2.418  1.00  0.00     0.164 HD
BRANCH  12  15
ATOM     15  CA  SER A   1       7.888  -1.452   1.449  1.00  0.00     0.167 C 
BRANCH  15  16
ATOM     16  N   SER A   1       7.487  -2.121   0.208  1.00  0.00    -0.318 NA
ATOM     17  H   UNL     1       6.443  -2.196   0.196  1.00  0.00     0.119 HD
ATOM     18  H   UNL     1       7.765  -1.528  -0.609  1.00  0.00     0.119 HD
ENDBRANCH  15  16
BRANCH  15  19
ATOM     19  CB  SER A   1       9.416  -1.502   1.598  1.00  0.00     0.184 C 
BRANCH  19  20
ATOM     20  OG  SER A   1       9.799  -0.924   2.816  1.00  0.00    -0.394 OA
ATOM     21  H   UNL     1      10.793  -0.920   2.816  1.00  0.00     0.210 HD
ENDBRANCH  19  20
ENDBRANCH  15  19
ENDBRANCH  12  15
ENDBRANCH  10  11
ENDBRANCH   7  10
ENDBRANCH   5   6
BRANCH   5  22
ATOM     22  CB  LEU A   3       3.902   1.887  -2.061  1.00  0.00     0.038 C 
BRANCH  22  23
ATOM     23  CG  LEU A   3       3.666   0.386  -2.371  1.00  0.00    -0.015 C 
ATOM     24  CD1 LEU A   3       4.178   0.072  -3.784  1.00  0.00     0.007 C 
ATOM     25  CD2 LEU A   3       4.362  -0.540  -1.361  1.00  0.00     0.007 C 
ENDBRANCH  22  23
ENDBRANCH   5  22
ENDBRANCH   1   5
BRANCH   3  26
ATOM     26  CA  SER A   4      -0.414   1.100  -0.956  1.00  0.00     0.197 C 
BRANCH  26  27
ATOM     27  C   SER A   4      -1.026  -0.081  -0.249  1.00  0.00     0.245 C 
ATOM     28  N   ARG A   5      -1.851   0.129   0.906  1.00  0.00    -0.342 N 
ATOM     29  O   SER A   4      -0.796  -1.254  -0.656  1.00  0.00    -0.273 OA
ATOM     30  H   UNL     1      -1.460   0.739   1.658  1.00  0.00     0.164 HD
BRANCH  28  31
ATOM     31  CA  ARG A   5      -3.309  -0.055   0.882  1.00  0.00     0.171 C 
BRANCH  31  32
ATOM     32  C   ARG A   5      -3.683  -1.512   1.016  1.00  0.00     0.243 C 
ATOM     33  N   ASN A   6      -4.887  -1.877   1.712  1.00  0.00    -0.341 N 
ATOM     34  O   ARG A   5      -2.982  -2.402   0.466  1.00  0.00    -0.273 OA
ATOM     35  H   UNL     1      -5.430  -1.119   2.188  1.00  0.00     0.164 HD
BRANCH  33  36
ATOM     36  CA  ASN A   6      -5.400  -3.251   1.719  1.00  0.00     0.201 C 
BRANCH  36  37
ATOM     37  C   ASN A   6      -5.786  -3.651   0.322  1.00  0.00     0.326 C 
ATOM     38  O   ASN A   6      -5.201  -4.616  -0.243  1.00  0.00    -0.250 OA
BRANCH  37  39
ATOM     39  OXT ASN A   6      -6.773  -2.945  -0.361  1.00  0.00    -0.480 OA
ATOM     40  H   UNL     1      -7.035  -3.199  -1.310  1.00  0.00     0.296 HD
ENDBRANCH  37  39
ENDBRANCH  36  37
BRANCH  36  41
ATOM     41  CB  ASN A   6      -6.607  -3.362   2.673  1.00  0.00     0.136 C 
BRANCH  41  42
ATOM     42  CG  ASN A   6      -7.112  -4.772   2.786  1.00  0.00     0.220 C 
ATOM     43  ND2 ASN A   6      -6.588  -5.652   3.778  1.00  0.00    -0.370 N 
ATOM     44  OD1 ASN A   6      -7.983  -5.193   1.974  1.00  0.00    -0.275 OA
ATOM     45  H   UNL     1      -5.860  -5.321   4.443  1.00  0.00     0.159 HD
ATOM     46  H   UNL     1      -6.954  -6.627   3.864  1.00  0.00     0.159 HD
ENDBRANCH  41  42
ENDBRANCH  36  41
ENDBRANCH  33  36
ENDBRANCH  31  32
BRANCH  31  47
ATOM     47  CB  ARG A   5      -3.923   0.578  -0.387  1.00  0.00     0.037 C 
BRANCH  47  48
ATOM     48  CG  ARG A   5      -5.451   0.725  -0.300  1.00  0.00     0.024 C 
BRANCH  48  49
ATOM     49  CD  ARG A   5      -6.021   1.524  -1.480  1.00  0.00     0.116 C 
BRANCH  49  50
ATOM     50  NE  ARG A   5      -5.530   2.902  -1.481  1.00  0.00    -0.357 N 
ATOM     51  CZ  ARG A   5      -5.829   3.884  -0.470  1.00  0.00     0.185 C 
ATOM     52  NH2 ARG A   5      -5.046   5.075  -0.394  1.00  0.00    -0.370 N 
ATOM     53  H   UNL     1      -4.848   3.169  -2.230  1.00  0.00     0.163 HD
ATOM     54  H   UNL     1      -4.231   5.218  -1.031  1.00  0.00     0.159 HD
ATOM     55  H   UNL     1      -5.261   5.808   0.320  1.00  0.00     0.159 HD
BRANCH  51  56
ATOM     56  NH1 ARG A   5      -6.813   3.728   0.359  1.00  0.00    -0.270 NA
ATOM     57  H   UNL     1      -7.443   2.895   0.352  1.00  0.00     0.191 HD
ENDBRANCH  51  56
ENDBRANCH  49  50
ENDBRANCH  48  49
ENDBRANCH  47  48
ENDBRANCH  31  47
ENDBRANCH  28  31
ENDBRANCH  26  27
BRANCH  26  58
ATOM     58  CB  SER A   4      -0.624   0.982  -2.473  1.00  0.00     0.191 C 
BRANCH  58  59
ATOM     59  OG  SER A   4      -0.192   2.149  -3.125  1.00  0.00    -0.394 OA
ATOM     60  H   UNL     1       0.632   1.916  -3.626  1.00  0.00     0.210 HD
ENDBRANCH  58  59
ENDBRANCH  26  58
ENDBRANCH   3  26
TORSDOF 26
