REMARK SMILES CC[C@H](C)[C@H](NC(=O)[C@H](CCCNC(=N)N)NC(=O)[C@@H](N)CO)C(=O)N[C@@H](CC(C)C)C(=O)N[C@@H](CCCNC(=N)N)C(=O)N[C@@H](CC(N)=O)C(=O)O
REMARK SMILES IDX 24 1 25 2 26 3 5 5 6 6 7 7 8 8 9 10 17 11 18 12 19 13 20 15
REMARK SMILES IDX 21 16 22 19 23 20 10 22 11 23 12 24 13 25 14 26 16 27 15 31
REMARK SMILES IDX 3 33 4 34 2 35 1 36 27 37 32 38 34 39 33 40 35 42 43 43
REMARK SMILES IDX 45 44 44 45 46 47 51 48 52 49 53 50 47 52 48 53 49 54 50 55
REMARK SMILES IDX 36 58 37 59 38 60 39 61 40 62 42 63 41 67 28 69 29 70 30 71
REMARK SMILES IDX 31 72
REMARK H PARENT 26 4 6 9 17 14 21 17 21 18 23 21 13 28 16 29 16 30 15 32 34 41
REMARK H PARENT 45 46 53 51 49 56 49 57 39 64 42 65 42 66 41 68
ROOT
ATOM      1  C   ILE A   3      20.026  10.082  -6.468  1.00  0.00     0.243 C 
ATOM      2  O   ILE A   3      20.142   9.160  -5.614  1.00  0.00    -0.273 OA
ATOM      3  N   LEU A   4      20.562   9.924  -7.773  1.00  0.00    -0.343 N 
ATOM      4  H   UNL     1      20.406  10.669  -8.490  1.00  0.00     0.164 HD
ENDROOT
BRANCH   1   5
ATOM      5  CA  ILE A   3      19.324  11.359  -6.131  1.00  0.00     0.174 C 
BRANCH   5   6
ATOM      6  N   ILE A   3      18.078  11.049  -5.472  1.00  0.00    -0.342 N 
ATOM      7  C   ARG A   2      16.870  11.742  -5.742  1.00  0.00     0.243 C 
ATOM      8  O   ARG A   2      16.879  12.776  -6.468  1.00  0.00    -0.273 OA
ATOM      9  H   UNL     1      18.156  10.515  -4.581  1.00  0.00     0.164 HD
BRANCH   7  10
ATOM     10  CA  ARG A   2      15.621  11.283  -5.045  1.00  0.00     0.171 C 
BRANCH  10  11
ATOM     11  N   ARG A   2      14.442  11.733  -5.770  1.00  0.00    -0.343 N 
ATOM     12  C   SER A   1      13.912  13.047  -5.637  1.00  0.00     0.239 C 
ATOM     13  O   SER A   1      14.450  13.862  -4.838  1.00  0.00    -0.273 OA
ATOM     14  H   UNL     1      13.876  11.012  -6.266  1.00  0.00     0.164 HD
BRANCH  12  15
ATOM     15  CA  SER A   1      12.655  13.412  -6.386  1.00  0.00     0.167 C 
BRANCH  15  16
ATOM     16  N   SER A   1      12.468  14.864  -6.378  1.00  0.00    -0.318 NA
ATOM     17  H   UNL     1      11.583  15.092  -6.886  1.00  0.00     0.119 HD
ATOM     18  H   UNL     1      12.305  15.172  -5.392  1.00  0.00     0.119 HD
ENDBRANCH  15  16
BRANCH  15  19
ATOM     19  CB  SER A   1      12.693  12.903  -7.848  1.00  0.00     0.184 C 
BRANCH  19  20
ATOM     20  OG  SER A   1      11.436  13.041  -8.450  1.00  0.00    -0.394 OA
ATOM     21  H   UNL     1      10.857  12.331  -8.068  1.00  0.00     0.210 HD
ENDBRANCH  19  20
ENDBRANCH  15  19
ENDBRANCH  12  15
ENDBRANCH  10  11
BRANCH  10  22
ATOM     22  CB  ARG A   2      15.579   9.738  -4.933  1.00  0.00     0.037 C 
BRANCH  22  23
ATOM     23  CG  ARG A   2      14.414   9.262  -4.064  1.00  0.00     0.024 C 
BRANCH  23  24
ATOM     24  CD  ARG A   2      14.382   7.732  -3.968  1.00  0.00     0.116 C 
BRANCH  24  25
ATOM     25  NE  ARG A   2      13.244   7.293  -3.161  1.00  0.00    -0.357 N 
ATOM     26  CZ  ARG A   2      13.219   7.381  -1.728  1.00  0.00     0.185 C 
ATOM     27  NH2 ARG A   2      12.054   6.956  -1.015  1.00  0.00    -0.370 N 
ATOM     28  H   UNL     1      12.433   6.851  -3.650  1.00  0.00     0.163 HD
ATOM     29  H   UNL     1      12.015   7.007   0.027  1.00  0.00     0.159 HD
ATOM     30  H   UNL     1      11.223   6.591  -1.530  1.00  0.00     0.159 HD
BRANCH  26  31
ATOM     31  NH1 ARG A   2      14.247   7.832  -1.081  1.00  0.00    -0.270 NA
ATOM     32  H   UNL     1      14.253   7.902  -0.039  1.00  0.00     0.191 HD
ENDBRANCH  26  31
ENDBRANCH  24  25
ENDBRANCH  23  24
ENDBRANCH  22  23
ENDBRANCH  10  22
ENDBRANCH   7  10
ENDBRANCH   5   6
BRANCH   5  33
ATOM     33  CB  ILE A   3      20.202  12.260  -5.238  1.00  0.00     0.018 C 
ATOM     34  CG1 ILE A   3      19.646  13.693  -5.173  1.00  0.00     0.010 C 
BRANCH  33  35
ATOM     35  CG2 ILE A   3      20.432  11.700  -3.807  1.00  0.00     0.002 C 
ATOM     36  CD1 ILE A   3      21.818  12.070  -3.295  1.00  0.00     0.004 C 
ENDBRANCH  33  35
ENDBRANCH   5  33
ENDBRANCH   1   5
BRANCH   3  37
ATOM     37  CA  LEU A   4      21.347   8.762  -8.140  1.00  0.00     0.171 C 
BRANCH  37  38
ATOM     38  C   LEU A   4      22.713   9.217  -8.521  1.00  0.00     0.243 C 
ATOM     39  N   ARG A   5      23.822   8.721  -7.785  1.00  0.00    -0.343 N 
ATOM     40  O   LEU A   4      22.877  10.033  -9.468  1.00  0.00    -0.273 OA
ATOM     41  H   UNL     1      23.666   8.031  -7.015  1.00  0.00     0.164 HD
BRANCH  39  42
ATOM     42  CA  ARG A   5      25.185   9.122  -8.073  1.00  0.00     0.171 C 
BRANCH  42  43
ATOM     43  C   ARG A   5      25.900   7.968  -8.685  1.00  0.00     0.243 C 
ATOM     44  N   ASN A   6      25.913   7.864 -10.102  1.00  0.00    -0.341 N 
ATOM     45  O   ARG A   5      26.447   7.087  -7.969  1.00  0.00    -0.273 OA
ATOM     46  H   UNL     1      25.488   8.647 -10.651  1.00  0.00     0.164 HD
BRANCH  44  47
ATOM     47  CA  ASN A   6      26.542   6.751 -10.804  1.00  0.00     0.201 C 
BRANCH  47  48
ATOM     48  C   ASN A   6      27.993   6.642 -10.416  1.00  0.00     0.326 C 
ATOM     49  O   ASN A   6      28.794   7.579 -10.677  1.00  0.00    -0.250 OA
BRANCH  48  50
ATOM     50  OXT ASN A   6      28.451   5.499  -9.768  1.00  0.00    -0.480 OA
ATOM     51  H   UNL     1      29.424   5.409  -9.499  1.00  0.00     0.296 HD
ENDBRANCH  48  50
ENDBRANCH  47  48
BRANCH  47  52
ATOM     52  CB  ASN A   6      26.424   6.947 -12.323  1.00  0.00     0.136 C 
BRANCH  52  53
ATOM     53  CG  ASN A   6      25.010   7.181 -12.773  1.00  0.00     0.220 C 
ATOM     54  ND2 ASN A   6      24.753   8.090 -13.833  1.00  0.00    -0.370 N 
ATOM     55  OD1 ASN A   6      24.053   6.558 -12.243  1.00  0.00    -0.275 OA
ATOM     56  H   UNL     1      23.775   8.258 -14.156  1.00  0.00     0.159 HD
ATOM     57  H   UNL     1      25.533   8.600 -14.306  1.00  0.00     0.159 HD
ENDBRANCH  52  53
ENDBRANCH  47  52
ENDBRANCH  44  47
ENDBRANCH  42  43
BRANCH  42  58
ATOM     58  CB  ARG A   5      25.862   9.605  -6.795  1.00  0.00     0.037 C 
BRANCH  58  59
ATOM     59  CG  ARG A   5      25.165  10.859  -6.269  1.00  0.00     0.024 C 
BRANCH  59  60
ATOM     60  CD  ARG A   5      25.839  11.391  -5.013  1.00  0.00     0.116 C 
BRANCH  60  61
ATOM     61  NE  ARG A   5      25.379  10.686  -3.820  1.00  0.00    -0.357 N 
ATOM     62  CZ  ARG A   5      25.469  11.281  -2.526  1.00  0.00     0.185 C 
ATOM     63  NH2 ARG A   5      26.107  12.546  -2.351  1.00  0.00    -0.370 N 
ATOM     64  H   UNL     1      24.897   9.762  -3.912  1.00  0.00     0.163 HD
ATOM     65  H   UNL     1      26.079  13.024  -1.423  1.00  0.00     0.159 HD
ATOM     66  H   UNL     1      26.697  12.982  -3.092  1.00  0.00     0.159 HD
BRANCH  62  67
ATOM     67  NH1 ARG A   5      24.954  10.672  -1.507  1.00  0.00    -0.270 NA
ATOM     68  H   UNL     1      24.995  11.076  -0.545  1.00  0.00     0.191 HD
ENDBRANCH  62  67
ENDBRANCH  60  61
ENDBRANCH  59  60
ENDBRANCH  58  59
ENDBRANCH  42  58
ENDBRANCH  39  42
ENDBRANCH  37  38
BRANCH  37  69
ATOM     69  CB  LEU A   4      20.654   8.000  -9.272  1.00  0.00     0.038 C 
BRANCH  69  70
ATOM     70  CG  LEU A   4      21.448   6.772  -9.768  1.00  0.00    -0.015 C 
ATOM     71  CD1 LEU A   4      21.762   5.779  -8.639  1.00  0.00     0.007 C 
ATOM     72  CD2 LEU A   4      20.661   6.068 -10.877  1.00  0.00     0.007 C 
ENDBRANCH  69  70
ENDBRANCH  37  69
ENDBRANCH   3  37
TORSDOF 31
