REMARK SMILES CC(C)C[C@H](NC(=O)[C@H](C)NC(=O)[C@@H](N)CO)C(=O)NCC(=O)N[C@@H](CCCNC(=N)N)C(=O)N[C@@H](CC(N)=O)C(=O)O
REMARK SMILES IDX 18 1 19 2 20 3 5 5 6 6 7 7 8 8 9 10 10 11 11 12 12 13 13 14
REMARK SMILES IDX 14 16 15 17 16 20 17 21 4 23 2 24 1 25 3 26 21 27 22 28
REMARK SMILES IDX 24 29 23 30 25 32 33 33 35 34 34 35 36 37 41 38 42 39 43 40
REMARK SMILES IDX 37 42 38 43 39 44 40 45 26 48 27 49 28 50 29 51 30 52 32 53
REMARK SMILES IDX 31 57
REMARK H PARENT 20 4 6 9 11 15 15 18 15 19 17 22 24 31 35 36 43 41 39 46 39 47
REMARK H PARENT 29 54 32 55 32 56 31 58
ROOT
ATOM      1  C   LEU A   3      20.066  10.072  -6.443  1.00  0.00     0.243 C 
ATOM      2  O   LEU A   3      20.215   9.169  -5.577  1.00  0.00    -0.273 OA
ATOM      3  N   GLY A   4      20.563   9.907  -7.765  1.00  0.00    -0.345 N 
ATOM      4  H   UNL     1      20.395  10.654  -8.477  1.00  0.00     0.164 HD
ENDROOT
BRANCH   1   5
ATOM      5  CA  LEU A   3      19.321  11.320  -6.121  1.00  0.00     0.171 C 
BRANCH   5   6
ATOM      6  N   LEU A   3      18.066  10.998  -5.489  1.00  0.00    -0.343 N 
ATOM      7  C   ALA A   2      16.874  11.738  -5.725  1.00  0.00     0.242 C 
ATOM      8  O   ALA A   2      16.901  12.783  -6.436  1.00  0.00    -0.273 OA
ATOM      9  H   UNL     1      18.082  10.261  -4.753  1.00  0.00     0.164 HD
BRANCH   7  10
ATOM     10  CA  ALA A   2      15.613  11.293  -5.037  1.00  0.00     0.168 C 
ATOM     11  CB  ALA A   2      15.557   9.762  -4.897  1.00  0.00     0.041 C 
BRANCH  10  12
ATOM     12  N   ALA A   2      14.440  11.733  -5.771  1.00  0.00    -0.343 N 
ATOM     13  C   SER A   1      13.910  13.047  -5.639  1.00  0.00     0.239 C 
ATOM     14  O   SER A   1      14.449  13.864  -4.841  1.00  0.00    -0.273 OA
ATOM     15  H   UNL     1      13.857  11.001  -6.233  1.00  0.00     0.164 HD
BRANCH  13  16
ATOM     16  CA  SER A   1      12.652  13.414  -6.388  1.00  0.00     0.167 C 
BRANCH  16  17
ATOM     17  N   SER A   1      12.469  14.867  -6.382  1.00  0.00    -0.318 NA
ATOM     18  H   UNL     1      12.336  15.180  -5.392  1.00  0.00     0.119 HD
ATOM     19  H   UNL     1      11.566  15.094  -6.858  1.00  0.00     0.119 HD
ENDBRANCH  16  17
BRANCH  16  20
ATOM     20  CB  SER A   1      12.695  12.901  -7.847  1.00  0.00     0.184 C 
BRANCH  20  21
ATOM     21  OG  SER A   1      11.436  13.038  -8.449  1.00  0.00    -0.394 OA
ATOM     22  H   UNL     1      11.445  13.894  -8.951  1.00  0.00     0.210 HD
ENDBRANCH  20  21
ENDBRANCH  16  20
ENDBRANCH  13  16
ENDBRANCH  10  12
ENDBRANCH   7  10
ENDBRANCH   5   6
BRANCH   5  23
ATOM     23  CB  LEU A   3      20.143  12.333  -5.311  1.00  0.00     0.038 C 
BRANCH  23  24
ATOM     24  CG  LEU A   3      20.425  12.201  -3.789  1.00  0.00    -0.015 C 
ATOM     25  CD1 LEU A   3      21.817  11.748  -3.390  1.00  0.00     0.007 C 
ATOM     26  CD2 LEU A   3      19.293  11.875  -2.831  1.00  0.00     0.007 C 
ENDBRANCH  23  24
ENDBRANCH   5  23
ENDBRANCH   1   5
BRANCH   3  27
ATOM     27  CA  GLY A   4      21.332   8.753  -8.184  1.00  0.00     0.216 C 
BRANCH  27  28
ATOM     28  C   GLY A   4      22.704   9.202  -8.532  1.00  0.00     0.240 C 
ATOM     29  N   ARG A   5      23.808   8.707  -7.786  1.00  0.00    -0.343 N 
ATOM     30  O   GLY A   4      22.878  10.027  -9.470  1.00  0.00    -0.273 OA
ATOM     31  H   UNL     1      23.644   7.991  -7.042  1.00  0.00     0.164 HD
BRANCH  29  32
ATOM     32  CA  ARG A   5      25.174   9.114  -8.068  1.00  0.00     0.171 C 
BRANCH  32  33
ATOM     33  C   ARG A   5      25.897   7.966  -8.684  1.00  0.00     0.243 C 
ATOM     34  N   ASN A   6      25.915   7.866 -10.101  1.00  0.00    -0.341 N 
ATOM     35  O   ARG A   5      26.448   7.086  -7.969  1.00  0.00    -0.273 OA
ATOM     36  H   UNL     1      25.496   8.652 -10.649  1.00  0.00     0.164 HD
BRANCH  34  37
ATOM     37  CA  ASN A   6      26.543   6.752 -10.803  1.00  0.00     0.201 C 
BRANCH  37  38
ATOM     38  C   ASN A   6      27.993   6.642 -10.416  1.00  0.00     0.326 C 
ATOM     39  O   ASN A   6      28.795   7.579 -10.677  1.00  0.00    -0.250 OA
BRANCH  38  40
ATOM     40  OXT ASN A   6      28.452   5.499  -9.770  1.00  0.00    -0.480 OA
ATOM     41  H   UNL     1      29.425   5.408  -9.502  1.00  0.00     0.296 HD
ENDBRANCH  38  40
ENDBRANCH  37  38
BRANCH  37  42
ATOM     42  CB  ASN A   6      26.424   6.947 -12.323  1.00  0.00     0.136 C 
BRANCH  42  43
ATOM     43  CG  ASN A   6      25.010   7.182 -12.772  1.00  0.00     0.220 C 
ATOM     44  ND2 ASN A   6      24.754   8.089 -13.834  1.00  0.00    -0.370 N 
ATOM     45  OD1 ASN A   6      24.051   6.563 -12.238  1.00  0.00    -0.275 OA
ATOM     46  H   UNL     1      23.775   8.257 -14.157  1.00  0.00     0.159 HD
ATOM     47  H   UNL     1      25.534   8.596 -14.309  1.00  0.00     0.159 HD
ENDBRANCH  42  43
ENDBRANCH  37  42
ENDBRANCH  34  37
ENDBRANCH  32  33
BRANCH  32  48
ATOM     48  CB  ARG A   5      25.852   9.598  -6.791  1.00  0.00     0.037 C 
BRANCH  48  49
ATOM     49  CG  ARG A   5      25.161  10.858  -6.269  1.00  0.00     0.024 C 
BRANCH  49  50
ATOM     50  CD  ARG A   5      25.838  11.390  -5.014  1.00  0.00     0.116 C 
BRANCH  50  51
ATOM     51  NE  ARG A   5      25.375  10.687  -3.820  1.00  0.00    -0.357 N 
ATOM     52  CZ  ARG A   5      25.468  11.282  -2.526  1.00  0.00     0.185 C 
ATOM     53  NH2 ARG A   5      26.108  12.546  -2.352  1.00  0.00    -0.370 N 
ATOM     54  H   UNL     1      24.888   9.765  -3.911  1.00  0.00     0.163 HD
ATOM     55  H   UNL     1      26.082  13.023  -1.423  1.00  0.00     0.159 HD
ATOM     56  H   UNL     1      26.697  12.981  -3.094  1.00  0.00     0.159 HD
BRANCH  52  57
ATOM     57  NH1 ARG A   5      24.954  10.672  -1.506  1.00  0.00    -0.270 NA
ATOM     58  H   UNL     1      24.996  11.077  -0.544  1.00  0.00     0.191 HD
ENDBRANCH  52  57
ENDBRANCH  50  51
ENDBRANCH  49  50
ENDBRANCH  48  49
ENDBRANCH  32  48
ENDBRANCH  29  32
ENDBRANCH  27  28
ENDBRANCH   3  27
TORSDOF 24
