REMARK SMILES CC(C)C[C@H](NC(=O)[C@H](CCCNC(=N)N)NC(=O)[C@@H](NC(=O)[C@@H](N)CO)C(C)C)C(=O)N[C@@H](CCCNC(=N)N)C(=O)N[C@@H](CC(N)=O)C(=O)O
REMARK SMILES IDX 7 1 8 2 6 3 9 5 17 6 18 7 19 8 20 10 21 11 22 12 23 13 24 15
REMARK SMILES IDX 25 16 26 19 27 20 28 22 29 23 30 24 10 25 11 26 12 27 13 28
REMARK SMILES IDX 14 29 16 30 15 34 5 36 31 37 33 38 32 39 34 41 42 42 44 43
REMARK SMILES IDX 43 44 45 46 50 47 51 48 52 49 46 51 47 52 48 53 49 54 35 57
REMARK SMILES IDX 36 58 37 59 38 60 39 61 41 62 40 66 4 68 2 69 1 70 3 71
REMARK H PARENT 6 4 17 9 21 14 25 17 25 18 27 21 13 31 16 32 16 33 15 35 33 40
REMARK H PARENT 44 45 52 50 48 55 48 56 38 63 41 64 41 65 40 67
ROOT
ATOM      1  C   ARG A   3      -1.783  -0.842  -0.435  1.00  0.00     0.243 C 
ATOM      2  O   ARG A   3      -1.783   0.421  -0.508  1.00  0.00    -0.273 OA
ATOM      3  N   LEU A   4      -0.671  -1.534   0.156  1.00  0.00    -0.343 N 
ATOM      4  H   UNL     1      -0.624  -2.574   0.054  1.00  0.00     0.164 HD
ENDROOT
BRANCH   1   5
ATOM      5  CA  ARG A   3      -2.942  -1.628  -0.993  1.00  0.00     0.171 C 
BRANCH   5   6
ATOM      6  N   ARG A   3      -4.216  -0.975  -0.658  1.00  0.00    -0.343 N 
ATOM      7  C   VAL A   2      -4.631  -0.753   0.704  1.00  0.00     0.243 C 
ATOM      8  O   VAL A   2      -3.894  -1.156   1.647  1.00  0.00    -0.273 OA
ATOM      9  H   UNL     1      -4.865  -0.718  -1.434  1.00  0.00     0.164 HD
BRANCH   7  10
ATOM     10  CA  VAL A   2      -5.976  -0.134   1.039  1.00  0.00     0.173 C 
BRANCH  10  11
ATOM     11  N   VAL A   2      -5.960   0.366   2.423  1.00  0.00    -0.343 N 
ATOM     12  C   SER A   1      -6.423  -0.401   3.543  1.00  0.00     0.239 C 
ATOM     13  O   SER A   1      -6.870  -1.569   3.372  1.00  0.00    -0.273 OA
ATOM     14  H   UNL     1      -5.443   1.250   2.623  1.00  0.00     0.164 HD
BRANCH  12  15
ATOM     15  CA  SER A   1      -6.296   0.165   4.934  1.00  0.00     0.167 C 
BRANCH  15  16
ATOM     16  N   SER A   1      -7.337  -0.386   5.808  1.00  0.00    -0.318 NA
ATOM     17  H   UNL     1      -7.359   0.164   6.697  1.00  0.00     0.119 HD
ATOM     18  H   UNL     1      -7.095  -1.372   6.067  1.00  0.00     0.119 HD
ENDBRANCH  15  16
BRANCH  15  19
ATOM     19  CB  SER A   1      -4.887  -0.110   5.491  1.00  0.00     0.184 C 
BRANCH  19  20
ATOM     20  OG  SER A   1      -4.734   0.472   6.759  1.00  0.00    -0.394 OA
ATOM     21  H   UNL     1      -4.611   1.444   6.608  1.00  0.00     0.210 HD
ENDBRANCH  19  20
ENDBRANCH  15  19
ENDBRANCH  12  15
ENDBRANCH  10  11
BRANCH  10  22
ATOM     22  CB  VAL A   2      -6.434   0.992   0.060  1.00  0.00     0.015 C 
ATOM     23  CG1 VAL A   2      -5.408   2.130  -0.092  1.00  0.00     0.010 C 
ATOM     24  CG2 VAL A   2      -7.801   1.563   0.474  1.00  0.00     0.010 C 
ENDBRANCH  10  22
ENDBRANCH   7  10
ENDBRANCH   5   6
BRANCH   5  25
ATOM     25  CB  ARG A   3      -2.808  -1.788  -2.522  1.00  0.00     0.037 C 
BRANCH  25  26
ATOM     26  CG  ARG A   3      -1.590  -2.645  -2.914  1.00  0.00     0.024 C 
BRANCH  26  27
ATOM     27  CD  ARG A   3      -1.527  -2.889  -4.426  1.00  0.00     0.116 C 
BRANCH  27  28
ATOM     28  NE  ARG A   3      -2.589  -3.794  -4.874  1.00  0.00    -0.357 N 
ATOM     29  CZ  ARG A   3      -2.848  -4.076  -6.260  1.00  0.00     0.185 C 
ATOM     30  NH2 ARG A   3      -3.979  -4.870  -6.616  1.00  0.00    -0.370 N 
ATOM     31  H   UNL     1      -3.205  -4.254  -4.161  1.00  0.00     0.163 HD
ATOM     32  H   UNL     1      -4.593  -5.281  -5.880  1.00  0.00     0.159 HD
ATOM     33  H   UNL     1      -4.215  -5.036  -7.618  1.00  0.00     0.159 HD
BRANCH  29  34
ATOM     34  NH1 ARG A   3      -2.072  -3.633  -7.201  1.00  0.00    -0.270 NA
ATOM     35  H   UNL     1      -1.226  -3.050  -7.017  1.00  0.00     0.191 HD
ENDBRANCH  29  34
ENDBRANCH  27  28
ENDBRANCH  26  27
ENDBRANCH  25  26
ENDBRANCH   5  25
ENDBRANCH   1   5
BRANCH   3  36
ATOM     36  CA  LEU A   4       0.372  -0.832   0.911  1.00  0.00     0.171 C 
BRANCH  36  37
ATOM     37  C   LEU A   4       1.315  -0.143  -0.041  1.00  0.00     0.243 C 
ATOM     38  N   ARG A   5       1.974   1.067   0.362  1.00  0.00    -0.343 N 
ATOM     39  O   LEU A   4       1.572  -0.664  -1.159  1.00  0.00    -0.273 OA
ATOM     40  H   UNL     1       1.651   1.524   1.243  1.00  0.00     0.164 HD
BRANCH  38  41
ATOM     41  CA  ARG A   5       2.970   1.740  -0.481  1.00  0.00     0.171 C 
BRANCH  41  42
ATOM     42  C   ARG A   5       4.168   0.864  -0.734  1.00  0.00     0.243 C 
ATOM     43  N   ASN A   6       4.974   1.090  -1.899  1.00  0.00    -0.341 N 
ATOM     44  O   ARG A   5       4.478  -0.039   0.093  1.00  0.00    -0.273 OA
ATOM     45  H   UNL     1       4.739   1.903  -2.513  1.00  0.00     0.164 HD
BRANCH  43  46
ATOM     46  CA  ASN A   6       6.206   0.348  -2.169  1.00  0.00     0.201 C 
BRANCH  46  47
ATOM     47  C   ASN A   6       7.379   1.124  -1.645  1.00  0.00     0.326 C 
ATOM     48  O   ASN A   6       8.015   0.703  -0.640  1.00  0.00    -0.250 OA
BRANCH  47  49
ATOM     49  OXT ASN A   6       7.746   2.324  -2.246  1.00  0.00    -0.480 OA
ATOM     50  H   UNL     1       8.533   2.854  -1.897  1.00  0.00     0.296 HD
ENDBRANCH  47  49
ENDBRANCH  46  47
BRANCH  46  51
ATOM     51  CB  ASN A   6       6.326   0.085  -3.680  1.00  0.00     0.136 C 
BRANCH  51  52
ATOM     52  CG  ASN A   6       7.519  -0.770  -4.005  1.00  0.00     0.220 C 
ATOM     53  ND2 ASN A   6       8.690  -0.190  -4.581  1.00  0.00    -0.370 N 
ATOM     54  OD1 ASN A   6       7.489  -2.007  -3.768  1.00  0.00    -0.275 OA
ATOM     55  H   UNL     1       8.745   0.835  -4.767  1.00  0.00     0.159 HD
ATOM     56  H   UNL     1       9.518  -0.787  -4.797  1.00  0.00     0.159 HD
ENDBRANCH  51  52
ENDBRANCH  46  51
ENDBRANCH  43  46
ENDBRANCH  41  42
BRANCH  41  57
ATOM     57  CB  ARG A   5       3.388   3.102   0.116  1.00  0.00     0.037 C 
BRANCH  57  58
ATOM     58  CG  ARG A   5       4.084   3.021   1.498  1.00  0.00     0.024 C 
BRANCH  58  59
ATOM     59  CD  ARG A   5       5.620   2.971   1.428  1.00  0.00     0.116 C 
BRANCH  59  60
ATOM     60  NE  ARG A   5       6.168   4.126   0.716  1.00  0.00    -0.357 N 
ATOM     61  CZ  ARG A   5       6.132   5.480   1.197  1.00  0.00     0.185 C 
ATOM     62  NH2 ARG A   5       6.458   6.541   0.303  1.00  0.00    -0.370 N 
ATOM     63  H   UNL     1       6.576   3.951  -0.230  1.00  0.00     0.163 HD
ATOM     64  H   UNL     1       6.408   7.537   0.617  1.00  0.00     0.159 HD
ATOM     65  H   UNL     1       6.727   6.336  -0.685  1.00  0.00     0.159 HD
BRANCH  61  66
ATOM     66  NH1 ARG A   5       5.827   5.762   2.426  1.00  0.00    -0.270 NA
ATOM     67  H   UNL     1       5.597   5.044   3.142  1.00  0.00     0.191 HD
ENDBRANCH  61  66
ENDBRANCH  59  60
ENDBRANCH  58  59
ENDBRANCH  57  58
ENDBRANCH  41  57
ENDBRANCH  38  41
ENDBRANCH  36  37
BRANCH  36  68
ATOM     68  CB  LEU A   4       1.169  -1.808   1.810  1.00  0.00     0.038 C 
BRANCH  68  69
ATOM     69  CG  LEU A   4       0.443  -2.177   3.128  1.00  0.00    -0.015 C 
ATOM     70  CD1 LEU A   4       1.398  -2.945   4.054  1.00  0.00     0.007 C 
ATOM     71  CD2 LEU A   4      -0.830  -3.006   2.888  1.00  0.00     0.007 C 
ENDBRANCH  68  69
ENDBRANCH  36  68
ENDBRANCH   3  36
TORSDOF 30
