REMARK SMILES CC(C)C[C@H](NC(=O)CNC(=O)[C@@H](N)CO)C(=O)N[C@@H](Cc1c[nH]cn1)C(=O)N[C@@H](CCCNC(=N)N)C(=O)N[C@@H](CC(N)=O)C(=O)O
REMARK SMILES IDX 17 1 18 2 19 3 5 5 6 6 7 7 8 8 9 10 10 11 11 12 12 13 13 15
REMARK SMILES IDX 14 16 15 19 16 20 4 22 2 23 1 24 3 25 20 26 27 27 29 28
REMARK SMILES IDX 28 29 30 31 38 32 40 33 39 34 41 36 46 37 47 38 48 39 42 41
REMARK SMILES IDX 43 42 44 43 45 44 31 47 32 48 33 49 34 50 35 51 37 52 36 56
REMARK SMILES IDX 21 58 22 59 26 60 23 61 25 62 24 63
REMARK H PARENT 19 4 6 9 10 14 14 17 14 18 16 21 29 30 40 35 48 40 44 45 44 46
REMARK H PARENT 34 53 37 54 37 55 36 57 24 64
ROOT
ATOM      1  C   LEU A   3      20.042  10.068  -6.470  1.00  0.00     0.243 C 
ATOM      2  O   LEU A   3      20.166   9.145  -5.619  1.00  0.00    -0.273 OA
ATOM      3  N   HIS A   4      20.566   9.911  -7.779  1.00  0.00    -0.342 N 
ATOM      4  H   UNL     1      20.403  10.656  -8.494  1.00  0.00     0.164 HD
ENDROOT
BRANCH   1   5
ATOM      5  CA  LEU A   3      19.310  11.323  -6.132  1.00  0.00     0.171 C 
BRANCH   5   6
ATOM      6  N   LEU A   3      18.034  10.979  -5.538  1.00  0.00    -0.343 N 
ATOM      7  C   GLY A   2      16.868  11.758  -5.739  1.00  0.00     0.240 C 
ATOM      8  O   GLY A   2      16.904  12.807  -6.441  1.00  0.00    -0.273 OA
ATOM      9  H   UNL     1      17.990  10.189  -4.853  1.00  0.00     0.164 HD
BRANCH   7  10
ATOM     10  CA  GLY A   2      15.632  11.331  -5.022  1.00  0.00     0.216 C 
BRANCH  10  11
ATOM     11  N   GLY A   2      14.440  11.726  -5.741  1.00  0.00    -0.346 N 
ATOM     12  C   SER A   1      13.910  13.043  -5.629  1.00  0.00     0.239 C 
ATOM     13  O   SER A   1      14.447  13.869  -4.838  1.00  0.00    -0.273 OA
ATOM     14  H   UNL     1      13.856  10.960  -6.144  1.00  0.00     0.164 HD
BRANCH  12  15
ATOM     15  CA  SER A   1      12.658  13.407  -6.385  1.00  0.00     0.167 C 
BRANCH  15  16
ATOM     16  N   SER A   1      12.455  14.857  -6.404  1.00  0.00    -0.318 NA
ATOM     17  H   UNL     1      12.287  15.192  -5.427  1.00  0.00     0.119 HD
ATOM     18  H   UNL     1      13.318  15.330  -6.763  1.00  0.00     0.119 HD
ENDBRANCH  15  16
BRANCH  15  19
ATOM     19  CB  SER A   1      12.691  12.874  -7.834  1.00  0.00     0.184 C 
BRANCH  19  20
ATOM     20  OG  SER A   1      11.443  13.047  -8.447  1.00  0.00    -0.394 OA
ATOM     21  H   UNL     1      10.839  12.357  -8.066  1.00  0.00     0.210 HD
ENDBRANCH  19  20
ENDBRANCH  15  19
ENDBRANCH  12  15
ENDBRANCH  10  11
ENDBRANCH   7  10
ENDBRANCH   5   6
BRANCH   5  22
ATOM     22  CB  LEU A   3      20.133  12.236  -5.211  1.00  0.00     0.038 C 
BRANCH  22  23
ATOM     23  CG  LEU A   3      20.405  11.668  -3.791  1.00  0.00    -0.015 C 
ATOM     24  CD1 LEU A   3      21.806  12.071  -3.322  1.00  0.00     0.007 C 
ATOM     25  CD2 LEU A   3      19.353  12.145  -2.783  1.00  0.00     0.007 C 
ENDBRANCH  22  23
ENDBRANCH   5  22
ENDBRANCH   1   5
BRANCH   3  26
ATOM     26  CA  HIS A   4      21.349   8.748  -8.154  1.00  0.00     0.177 C 
BRANCH  26  27
ATOM     27  C   HIS A   4      22.714   9.206  -8.529  1.00  0.00     0.243 C 
ATOM     28  N   ARG A   5      23.821   8.712  -7.789  1.00  0.00    -0.343 N 
ATOM     29  O   HIS A   4      22.879  10.030  -9.469  1.00  0.00    -0.273 OA
ATOM     30  H   UNL     1      23.666   7.998  -7.041  1.00  0.00     0.164 HD
BRANCH  28  31
ATOM     31  CA  ARG A   5      25.184   9.119  -8.072  1.00  0.00     0.171 C 
BRANCH  31  32
ATOM     32  C   ARG A   5      25.901   7.967  -8.686  1.00  0.00     0.243 C 
ATOM     33  N   ASN A   6      25.914   7.864 -10.103  1.00  0.00    -0.341 N 
ATOM     34  O   ARG A   5      26.449   7.086  -7.970  1.00  0.00    -0.273 OA
ATOM     35  H   UNL     1      25.490   8.648 -10.651  1.00  0.00     0.164 HD
BRANCH  33  36
ATOM     36  CA  ASN A   6      26.543   6.751 -10.805  1.00  0.00     0.201 C 
BRANCH  36  37
ATOM     37  C   ASN A   6      27.993   6.642 -10.415  1.00  0.00     0.326 C 
ATOM     38  O   ASN A   6      28.795   7.578 -10.676  1.00  0.00    -0.250 OA
BRANCH  37  39
ATOM     39  OXT ASN A   6      28.451   5.498  -9.768  1.00  0.00    -0.480 OA
ATOM     40  H   UNL     1      29.423   5.408  -9.498  1.00  0.00     0.296 HD
ENDBRANCH  37  39
ENDBRANCH  36  37
BRANCH  36  41
ATOM     41  CB  ASN A   6      26.428   6.949 -12.324  1.00  0.00     0.136 C 
BRANCH  41  42
ATOM     42  CG  ASN A   6      25.015   7.185 -12.776  1.00  0.00     0.220 C 
ATOM     43  ND2 ASN A   6      24.759   8.093 -13.837  1.00  0.00    -0.370 N 
ATOM     44  OD1 ASN A   6      24.058   6.566 -12.244  1.00  0.00    -0.275 OA
ATOM     45  H   UNL     1      25.538   8.601 -14.311  1.00  0.00     0.159 HD
ATOM     46  H   UNL     1      23.780   8.261 -14.160  1.00  0.00     0.159 HD
ENDBRANCH  41  42
ENDBRANCH  36  41
ENDBRANCH  33  36
ENDBRANCH  31  32
BRANCH  31  47
ATOM     47  CB  ARG A   5      25.859   9.602  -6.793  1.00  0.00     0.037 C 
BRANCH  47  48
ATOM     48  CG  ARG A   5      25.164  10.858  -6.270  1.00  0.00     0.024 C 
BRANCH  48  49
ATOM     49  CD  ARG A   5      25.839  11.390  -5.014  1.00  0.00     0.116 C 
BRANCH  49  50
ATOM     50  NE  ARG A   5      25.377  10.686  -3.820  1.00  0.00    -0.357 N 
ATOM     51  CZ  ARG A   5      25.469  11.281  -2.526  1.00  0.00     0.185 C 
ATOM     52  NH2 ARG A   5      26.107  12.546  -2.352  1.00  0.00    -0.370 N 
ATOM     53  H   UNL     1      24.894   9.763  -3.911  1.00  0.00     0.163 HD
ATOM     54  H   UNL     1      26.080  13.024  -1.423  1.00  0.00     0.159 HD
ATOM     55  H   UNL     1      26.696  12.982  -3.093  1.00  0.00     0.159 HD
BRANCH  51  56
ATOM     56  NH1 ARG A   5      24.954  10.672  -1.507  1.00  0.00    -0.270 NA
ATOM     57  H   UNL     1      24.995  11.077  -0.545  1.00  0.00     0.191 HD
ENDBRANCH  51  56
ENDBRANCH  49  50
ENDBRANCH  48  49
ENDBRANCH  47  48
ENDBRANCH  31  47
ENDBRANCH  28  31
ENDBRANCH  26  27
BRANCH  26  58
ATOM     58  CB  HIS A   4      20.662   7.999  -9.298  1.00  0.00     0.093 C 
BRANCH  58  59
ATOM     59  CG  HIS A   4      21.399   6.764  -9.747  1.00  0.00     0.061 A 
ATOM     60  ND1 HIS A   4      21.242   6.229 -10.975  1.00  0.00    -0.242 NA
ATOM     61  CD2 HIS A   4      22.111   5.884  -8.953  1.00  0.00     0.107 A 
ATOM     62  CE1 HIS A   4      21.895   5.050 -10.911  1.00  0.00     0.196 A 
ATOM     63  NE2 HIS A   4      22.433   4.818  -9.700  1.00  0.00    -0.351 N 
ATOM     64  H   UNL     1      22.965   3.972  -9.397  1.00  0.00     0.167 HD
ENDBRANCH  58  59
ENDBRANCH  26  58
ENDBRANCH   3  26
TORSDOF 26
