REMARK SMILES CC(C)C[C@H](NC(=O)[C@H](Cc1ccccc1)NC(=O)CN)C(=O)N[C@@H](CC(N)=O)C(=O)N[C@@H](CCCNC(=N)N)C(=O)N[C@@H](CC(N)=O)C(=O)O
REMARK SMILES IDX 25 1 24 2 22 3 23 4 5 6 6 7 7 8 8 9 9 11 17 12 18 13 19 14
REMARK SMILES IDX 20 16 21 17 10 20 11 21 12 22 16 23 13 24 15 25 14 26 4 27
REMARK SMILES IDX 2 28 1 29 3 30 30 31 32 32 31 33 33 35 41 36 43 37 42 38
REMARK SMILES IDX 44 40 49 41 50 42 51 43 45 45 46 46 47 47 48 48 34 51 35 52
REMARK SMILES IDX 36 53 37 54 38 55 40 56 39 60 26 62 27 63 28 64 29 65
REMARK H PARENT 24 5 6 10 17 15 21 18 21 19 32 34 43 39 51 44 47 49 47 50
REMARK H PARENT 37 57 40 58 40 59 39 61 28 66 28 67
ROOT
ATOM      1  CA  ASN A   4      -0.951   0.435   2.019  1.00  0.00     0.180 C 
ENDROOT
BRANCH   1   2
ATOM      2  N   ASN A   4       0.240   0.836   1.259  1.00  0.00    -0.342 N 
ATOM      3  C   LEU A   3       1.054  -0.117   0.556  1.00  0.00     0.243 C 
ATOM      4  O   LEU A   3       0.988  -1.345   0.846  1.00  0.00    -0.273 OA
ATOM      5  H   UNL     1       0.375   1.852   1.040  1.00  0.00     0.164 HD
BRANCH   3   6
ATOM      6  CA  LEU A   3       1.933   0.334  -0.580  1.00  0.00     0.171 C 
BRANCH   6   7
ATOM      7  N   LEU A   3       3.151  -0.484  -0.626  1.00  0.00    -0.343 N 
ATOM      8  C   PHE A   2       4.475   0.067  -0.624  1.00  0.00     0.243 C 
ATOM      9  O   PHE A   2       4.644   1.316  -0.584  1.00  0.00    -0.273 OA
ATOM     10  H   UNL     1       3.049  -1.521  -0.713  1.00  0.00     0.164 HD
BRANCH   8  11
ATOM     11  CA  PHE A   2       5.670  -0.857  -0.608  1.00  0.00     0.175 C 
BRANCH  11  12
ATOM     12  N   PHE A   2       6.779  -0.319  -1.407  1.00  0.00    -0.343 N 
ATOM     13  C   GLY A   1       7.820  -1.159  -1.927  1.00  0.00     0.234 C 
ATOM     14  O   GLY A   1       7.777  -2.405  -1.738  1.00  0.00    -0.274 OA
ATOM     15  H   UNL     1       6.857   0.711  -1.560  1.00  0.00     0.164 HD
BRANCH  13  16
ATOM     16  CA  GLY A   1       8.991  -0.555  -2.648  1.00  0.00     0.178 C 
BRANCH  16  17
ATOM     17  N   GLY A   1       9.263  -1.292  -3.880  1.00  0.00    -0.322 NA
ATOM     18  H   UNL     1      10.016  -0.778  -4.392  1.00  0.00     0.119 HD
ATOM     19  H   UNL     1       9.663  -2.225  -3.627  1.00  0.00     0.119 HD
ENDBRANCH  16  17
ENDBRANCH  13  16
ENDBRANCH  11  12
BRANCH  11  20
ATOM     20  CB  PHE A   2       6.121  -1.165   0.834  1.00  0.00     0.070 C 
BRANCH  20  21
ATOM     21  CG  PHE A   2       6.701   0.035   1.537  1.00  0.00    -0.045 A 
ATOM     22  CD1 PHE A   2       8.070   0.335   1.424  1.00  0.00     0.004 A 
ATOM     23  CD2 PHE A   2       5.874   0.876   2.298  1.00  0.00     0.004 A 
ATOM     24  CE1 PHE A   2       8.599   1.458   2.068  1.00  0.00     0.000 A 
ATOM     25  CE2 PHE A   2       6.407   1.997   2.938  1.00  0.00     0.000 A 
ATOM     26  CZ  PHE A   2       7.768   2.287   2.824  1.00  0.00     0.000 A 
ENDBRANCH  20  21
ENDBRANCH  11  20
ENDBRANCH   8  11
ENDBRANCH   6   7
BRANCH   6  27
ATOM     27  CB  LEU A   3       1.157   0.211  -1.906  1.00  0.00     0.038 C 
BRANCH  27  28
ATOM     28  CG  LEU A   3       1.953   0.703  -3.139  1.00  0.00    -0.015 C 
ATOM     29  CD1 LEU A   3       2.118   2.228  -3.145  1.00  0.00     0.007 C 
ATOM     30  CD2 LEU A   3       1.253   0.254  -4.428  1.00  0.00     0.007 C 
ENDBRANCH  27  28
ENDBRANCH   6  27
ENDBRANCH   3   6
ENDBRANCH   1   2
BRANCH   1  31
ATOM     31  C   ASN A   4      -2.194   0.642   1.191  1.00  0.00     0.243 C 
ATOM     32  N   ARG A   5      -3.346  -0.188   1.404  1.00  0.00    -0.343 N 
ATOM     33  O   ASN A   4      -2.233   1.576   0.345  1.00  0.00    -0.273 OA
ATOM     34  H   UNL     1      -3.255  -1.022   2.029  1.00  0.00     0.164 HD
BRANCH  32  35
ATOM     35  CA  ARG A   5      -4.646   0.073   0.777  1.00  0.00     0.171 C 
BRANCH  35  36
ATOM     36  C   ARG A   5      -5.695   0.168   1.861  1.00  0.00     0.243 C 
ATOM     37  N   ASN A   6      -6.424  -0.986   2.317  1.00  0.00    -0.341 N 
ATOM     38  O   ARG A   5      -5.851   1.279   2.443  1.00  0.00    -0.273 OA
ATOM     39  H   UNL     1      -6.522  -1.819   1.691  1.00  0.00     0.164 HD
BRANCH  37  40
ATOM     40  CA  ASN A   6      -7.149  -1.004   3.595  1.00  0.00     0.201 C 
BRANCH  40  41
ATOM     41  C   ASN A   6      -6.821  -2.253   4.369  1.00  0.00     0.326 C 
ATOM     42  O   ASN A   6      -6.511  -3.323   3.774  1.00  0.00    -0.250 OA
BRANCH  41  43
ATOM     43  OXT ASN A   6      -6.898  -2.233   5.760  1.00  0.00    -0.480 OA
ATOM     44  H   UNL     1      -6.687  -3.065   6.299  1.00  0.00     0.296 HD
ENDBRANCH  41  43
ENDBRANCH  40  41
BRANCH  40  45
ATOM     45  CB  ASN A   6      -8.663  -0.919   3.351  1.00  0.00     0.136 C 
BRANCH  45  46
ATOM     46  CG  ASN A   6      -9.039   0.377   2.689  1.00  0.00     0.220 C 
ATOM     47  ND2 ASN A   6      -9.545   0.393   1.351  1.00  0.00    -0.370 N 
ATOM     48  OD1 ASN A   6      -8.906   1.464   3.316  1.00  0.00    -0.275 OA
ATOM     49  H   UNL     1      -9.755   1.299   0.875  1.00  0.00     0.159 HD
ATOM     50  H   UNL     1      -9.678  -0.501   0.825  1.00  0.00     0.159 HD
ENDBRANCH  45  46
ENDBRANCH  40  45
ENDBRANCH  37  40
ENDBRANCH  35  36
BRANCH  35  51
ATOM     51  CB  ARG A   5      -4.952  -1.000  -0.286  1.00  0.00     0.037 C 
BRANCH  51  52
ATOM     52  CG  ARG A   5      -3.981  -0.910  -1.472  1.00  0.00     0.024 C 
BRANCH  52  53
ATOM     53  CD  ARG A   5      -4.319  -1.954  -2.541  1.00  0.00     0.116 C 
BRANCH  53  54
ATOM     54  NE  ARG A   5      -3.311  -1.951  -3.601  1.00  0.00    -0.357 N 
ATOM     55  CZ  ARG A   5      -3.133  -0.895  -4.561  1.00  0.00     0.185 C 
ATOM     56  NH2 ARG A   5      -1.969  -0.893  -5.386  1.00  0.00    -0.370 N 
ATOM     57  H   UNL     1      -2.651  -2.761  -3.640  1.00  0.00     0.163 HD
ATOM     58  H   UNL     1      -1.244  -1.634  -5.284  1.00  0.00     0.159 HD
ATOM     59  H   UNL     1      -1.817  -0.133  -6.085  1.00  0.00     0.159 HD
BRANCH  55  60
ATOM     60  NH1 ARG A   5      -4.012   0.050  -4.712  1.00  0.00    -0.270 NA
ATOM     61  H   UNL     1      -4.895   0.113  -4.163  1.00  0.00     0.191 HD
ENDBRANCH  55  60
ENDBRANCH  53  54
ENDBRANCH  52  53
ENDBRANCH  51  52
ENDBRANCH  35  51
ENDBRANCH  32  35
ENDBRANCH   1  31
BRANCH   1  62
ATOM     62  CB  ASN A   4      -1.025   1.184   3.365  1.00  0.00     0.134 C 
BRANCH  62  63
ATOM     63  CG  ASN A   4      -1.214   2.670   3.217  1.00  0.00     0.220 C 
ATOM     64  ND2 ASN A   4      -2.521   3.226   3.096  1.00  0.00    -0.370 N 
ATOM     65  OD1 ASN A   4      -0.210   3.426   3.184  1.00  0.00    -0.275 OA
ATOM     66  H   UNL     1      -2.648   4.260   3.020  1.00  0.00     0.159 HD
ATOM     67  H   UNL     1      -3.366   2.614   3.120  1.00  0.00     0.159 HD
ENDBRANCH  62  63
ENDBRANCH   1  62
TORSDOF 26
