REMARK SMILES CC(C)C[C@H](NC(=O)CNC(=O)[C@H](Cc1ccccc1)NC(=O)CN)C(=O)N[C@@H](CCCNC(=N)N)C(=O)N[C@@H](CC(N)=O)C(=O)O
REMARK SMILES IDX 5 1 6 2 7 3 8 4 9 6 10 7 11 8 12 9 13 11 21 12 22 13 23 14
REMARK SMILES IDX 24 16 25 17 14 20 15 21 16 22 20 23 17 24 19 25 18 26 26 27
REMARK SMILES IDX 28 28 27 29 29 31 37 32 39 33 38 34 40 36 45 37 46 38 47 39
REMARK SMILES IDX 41 41 42 42 43 43 44 44 30 47 31 48 32 49 33 50 34 51 36 52
REMARK SMILES IDX 35 56 4 58 2 59 1 60 3 61
REMARK H PARENT 6 5 10 10 21 15 25 18 25 19 28 30 39 35 47 40 43 45 43 46
REMARK H PARENT 33 53 36 54 36 55 35 57
ROOT
ATOM      1  CA  LEU A   4       0.161   0.106  -1.633  1.00  0.00     0.171 C 
ENDROOT
BRANCH   1   2
ATOM      2  N   LEU A   4       1.402  -0.640  -1.856  1.00  0.00    -0.343 N 
ATOM      3  C   GLY A   3       2.696  -0.023  -1.777  1.00  0.00     0.240 C 
ATOM      4  O   GLY A   3       2.801   1.211  -1.536  1.00  0.00    -0.273 OA
ATOM      5  H   UNL     1       1.351  -1.636  -2.173  1.00  0.00     0.164 HD
BRANCH   3   6
ATOM      6  CA  GLY A   3       3.924  -0.839  -2.057  1.00  0.00     0.216 C 
BRANCH   6   7
ATOM      7  N   GLY A   3       5.087  -0.303  -1.354  1.00  0.00    -0.345 N 
ATOM      8  C   PHE A   2       5.250  -0.418   0.067  1.00  0.00     0.243 C 
ATOM      9  O   PHE A   2       4.329  -0.911   0.775  1.00  0.00    -0.273 OA
ATOM     10  H   UNL     1       5.862   0.110  -1.923  1.00  0.00     0.164 HD
BRANCH   8  11
ATOM     11  CA  PHE A   2       6.557  -0.016   0.706  1.00  0.00     0.175 C 
BRANCH  11  12
ATOM     12  N   PHE A   2       6.308   0.693   1.967  1.00  0.00    -0.343 N 
ATOM     13  C   GLY A   1       5.652   1.970   2.009  1.00  0.00     0.234 C 
ATOM     14  O   GLY A   1       5.226   2.505   0.948  1.00  0.00    -0.274 OA
ATOM     15  H   UNL     1       6.673   0.294   2.862  1.00  0.00     0.164 HD
BRANCH  13  16
ATOM     16  CA  GLY A   1       5.449   2.664   3.321  1.00  0.00     0.178 C 
BRANCH  16  17
ATOM     17  N   GLY A   1       4.409   1.988   4.093  1.00  0.00    -0.322 NA
ATOM     18  H   UNL     1       4.777   1.062   4.411  1.00  0.00     0.119 HD
ATOM     19  H   UNL     1       4.246   2.547   4.960  1.00  0.00     0.119 HD
ENDBRANCH  16  17
ENDBRANCH  13  16
ENDBRANCH  11  12
BRANCH  11  20
ATOM     20  CB  PHE A   2       7.433  -1.257   0.958  1.00  0.00     0.070 C 
BRANCH  20  21
ATOM     21  CG  PHE A   2       7.790  -1.965  -0.326  1.00  0.00    -0.045 A 
ATOM     22  CD1 PHE A   2       7.012  -3.042  -0.787  1.00  0.00     0.004 A 
ATOM     23  CD2 PHE A   2       8.873  -1.519  -1.100  1.00  0.00     0.004 A 
ATOM     24  CE1 PHE A   2       7.317  -3.665  -2.001  1.00  0.00     0.000 A 
ATOM     25  CE2 PHE A   2       9.183  -2.152  -2.308  1.00  0.00     0.000 A 
ATOM     26  CZ  PHE A   2       8.405  -3.223  -2.759  1.00  0.00     0.000 A 
ENDBRANCH  20  21
ENDBRANCH  11  20
ENDBRANCH   8  11
ENDBRANCH   6   7
ENDBRANCH   3   6
ENDBRANCH   1   2
BRANCH   1  27
ATOM     27  C   LEU A   4      -0.932  -0.839  -1.199  1.00  0.00     0.243 C 
ATOM     28  N   ARG A   5      -1.601  -0.642   0.057  1.00  0.00    -0.343 N 
ATOM     29  O   LEU A   4      -1.268  -1.790  -1.958  1.00  0.00    -0.273 OA
ATOM     30  H   UNL     1      -1.293   0.162   0.646  1.00  0.00     0.164 HD
BRANCH  28  31
ATOM     31  CA  ARG A   5      -2.861  -1.322   0.386  1.00  0.00     0.171 C 
BRANCH  31  32
ATOM     32  C   ARG A   5      -4.046  -0.521  -0.084  1.00  0.00     0.243 C 
ATOM     33  N   ASN A   6      -5.321  -1.160  -0.239  1.00  0.00    -0.341 N 
ATOM     34  O   ARG A   5      -3.920   0.713  -0.322  1.00  0.00    -0.273 OA
ATOM     35  H   UNL     1      -5.411  -2.164   0.038  1.00  0.00     0.164 HD
BRANCH  33  36
ATOM     36  CA  ASN A   6      -6.534  -0.423  -0.606  1.00  0.00     0.201 C 
BRANCH  36  37
ATOM     37  C   ASN A   6      -7.267  -0.003   0.635  1.00  0.00     0.326 C 
ATOM     38  O   ASN A   6      -7.412  -0.809   1.595  1.00  0.00    -0.250 OA
BRANCH  37  39
ATOM     39  OXT ASN A   6      -7.823   1.270   0.710  1.00  0.00    -0.480 OA
ATOM     40  H   UNL     1      -8.346   1.560   1.528  1.00  0.00     0.296 HD
ENDBRANCH  37  39
ENDBRANCH  36  37
BRANCH  36  41
ATOM     41  CB  ASN A   6      -7.445  -1.289  -1.489  1.00  0.00     0.136 C 
BRANCH  41  42
ATOM     42  CG  ASN A   6      -6.768  -1.651  -2.779  1.00  0.00     0.220 C 
ATOM     43  ND2 ASN A   6      -6.599  -0.674  -3.808  1.00  0.00    -0.370 N 
ATOM     44  OD1 ASN A   6      -6.336  -2.822  -2.953  1.00  0.00    -0.275 OA
ATOM     45  H   UNL     1      -6.939   0.307  -3.679  1.00  0.00     0.159 HD
ATOM     46  H   UNL     1      -6.135  -0.933  -4.707  1.00  0.00     0.159 HD
ENDBRANCH  41  42
ENDBRANCH  36  41
ENDBRANCH  33  36
ENDBRANCH  31  32
BRANCH  31  47
ATOM     47  CB  ARG A   5      -2.940  -1.687   1.887  1.00  0.00     0.037 C 
BRANCH  47  48
ATOM     48  CG  ARG A   5      -2.947  -0.518   2.898  1.00  0.00     0.024 C 
BRANCH  48  49
ATOM     49  CD  ARG A   5      -4.321   0.145   3.067  1.00  0.00     0.116 C 
BRANCH  49  50
ATOM     50  NE  ARG A   5      -4.332   1.041   4.226  1.00  0.00    -0.357 N 
ATOM     51  CZ  ARG A   5      -5.486   1.817   4.575  1.00  0.00     0.185 C 
ATOM     52  NH2 ARG A   5      -5.453   2.652   5.733  1.00  0.00    -0.370 N 
ATOM     53  H   UNL     1      -3.470   1.148   4.809  1.00  0.00     0.163 HD
ATOM     54  H   UNL     1      -4.625   2.643   6.365  1.00  0.00     0.159 HD
ATOM     55  H   UNL     1      -6.261   3.272   5.970  1.00  0.00     0.159 HD
BRANCH  51  56
ATOM     56  NH1 ARG A   5      -6.557   1.761   3.848  1.00  0.00    -0.270 NA
ATOM     57  H   UNL     1      -7.413   2.314   4.077  1.00  0.00     0.191 HD
ENDBRANCH  51  56
ENDBRANCH  49  50
ENDBRANCH  48  49
ENDBRANCH  47  48
ENDBRANCH  31  47
ENDBRANCH  28  31
ENDBRANCH   1  27
BRANCH   1  58
ATOM     58  CB  LEU A   4      -0.230   0.864  -2.920  1.00  0.00     0.038 C 
BRANCH  58  59
ATOM     59  CG  LEU A   4      -1.549   1.671  -2.814  1.00  0.00    -0.015 C 
ATOM     60  CD1 LEU A   4      -1.452   2.805  -1.783  1.00  0.00     0.007 C 
ATOM     61  CD2 LEU A   4      -1.921   2.245  -4.186  1.00  0.00     0.007 C 
ENDBRANCH  58  59
ENDBRANCH   1  58
TORSDOF 24
