REMARK SMILES CC(C)C[C@H](NC(=O)[C@H](C)NC(=O)[C@H](C)NC(=O)[C@@H](N)CO)C(=O)N[C@@H](CCCNC(=N)N)C(=O)N[C@@H](CC(N)=O)C(=O)O
REMARK SMILES IDX 7 1 8 2 6 3 9 5 10 6 11 7 12 8 13 9 14 11 15 12 16 13 17 14
REMARK SMILES IDX 18 15 19 17 20 18 21 21 22 22 5 24 23 25 25 26 24 27 26 29
REMARK SMILES IDX 34 30 36 31 35 32 37 34 42 35 43 36 44 37 38 39 39 40 40 41
REMARK SMILES IDX 41 42 27 45 28 46 29 47 30 48 31 49 33 50 32 54 4 56 2 57
REMARK SMILES IDX 1 58 3 59
REMARK H PARENT 6 4 11 10 16 16 20 19 20 20 22 23 25 28 36 33 44 38 40 43
REMARK H PARENT 40 44 30 51 33 52 33 53 32 55
ROOT
ATOM      1  C   ALA A   3      20.043  10.097  -6.458  1.00  0.00     0.242 C 
ATOM      2  O   ALA A   3      20.180   9.195  -5.585  1.00  0.00    -0.273 OA
ATOM      3  N   LEU A   4      20.560   9.922  -7.769  1.00  0.00    -0.343 N 
ATOM      4  H   UNL     1      20.389  10.658  -8.493  1.00  0.00     0.164 HD
ENDROOT
BRANCH   1   5
ATOM      5  CA  ALA A   3      19.324  11.361  -6.137  1.00  0.00     0.168 C 
ATOM      6  CB  ALA A   3      20.154  12.235  -5.205  1.00  0.00     0.041 C 
BRANCH   5   7
ATOM      7  N   ALA A   3      18.072  11.028  -5.496  1.00  0.00    -0.343 N 
ATOM      8  C   ALA A   2      16.872  11.748  -5.737  1.00  0.00     0.242 C 
ATOM      9  O   ALA A   2      16.889  12.790  -6.451  1.00  0.00    -0.273 OA
ATOM     10  H   UNL     1      18.126  10.410  -4.656  1.00  0.00     0.164 HD
BRANCH   8  11
ATOM     11  CA  ALA A   2      15.619  11.293  -5.041  1.00  0.00     0.168 C 
ATOM     12  CB  ALA A   2      15.574   9.762  -4.908  1.00  0.00     0.041 C 
BRANCH  11  13
ATOM     13  N   ALA A   2      14.439  11.731  -5.765  1.00  0.00    -0.343 N 
ATOM     14  C   SER A   1      13.913  13.046  -5.635  1.00  0.00     0.239 C 
ATOM     15  O   SER A   1      14.450  13.862  -4.835  1.00  0.00    -0.273 OA
ATOM     16  H   UNL     1      13.848  10.999  -6.217  1.00  0.00     0.164 HD
BRANCH  14  17
ATOM     17  CA  SER A   1      12.660  13.413  -6.389  1.00  0.00     0.167 C 
BRANCH  17  18
ATOM     18  N   SER A   1      12.455  14.863  -6.398  1.00  0.00    -0.318 NA
ATOM     19  H   UNL     1      13.318  15.339  -6.753  1.00  0.00     0.119 HD
ATOM     20  H   UNL     1      12.286  15.191  -5.419  1.00  0.00     0.119 HD
ENDBRANCH  17  18
BRANCH  17  21
ATOM     21  CB  SER A   1      12.689  12.892  -7.844  1.00  0.00     0.184 C 
BRANCH  21  22
ATOM     22  OG  SER A   1      11.436  13.054  -8.447  1.00  0.00    -0.394 OA
ATOM     23  H   UNL     1      10.842  12.356  -8.065  1.00  0.00     0.210 HD
ENDBRANCH  21  22
ENDBRANCH  17  21
ENDBRANCH  14  17
ENDBRANCH  11  13
ENDBRANCH   8  11
ENDBRANCH   5   7
ENDBRANCH   1   5
BRANCH   3  24
ATOM     24  CA  LEU A   4      21.346   8.761  -8.136  1.00  0.00     0.171 C 
BRANCH  24  25
ATOM     25  C   LEU A   4      22.711   9.217  -8.518  1.00  0.00     0.243 C 
ATOM     26  N   ARG A   5      23.821   8.720  -7.785  1.00  0.00    -0.343 N 
ATOM     27  O   LEU A   4      22.875  10.033  -9.467  1.00  0.00    -0.273 OA
ATOM     28  H   UNL     1      23.666   8.030  -7.015  1.00  0.00     0.164 HD
BRANCH  26  29
ATOM     29  CA  ARG A   5      25.185   9.122  -8.073  1.00  0.00     0.171 C 
BRANCH  29  30
ATOM     30  C   ARG A   5      25.899   7.968  -8.685  1.00  0.00     0.243 C 
ATOM     31  N   ASN A   6      25.913   7.864 -10.102  1.00  0.00    -0.341 N 
ATOM     32  O   ARG A   5      26.447   7.087  -7.969  1.00  0.00    -0.273 OA
ATOM     33  H   UNL     1      25.489   8.647 -10.651  1.00  0.00     0.164 HD
BRANCH  31  34
ATOM     34  CA  ASN A   6      26.542   6.751 -10.804  1.00  0.00     0.201 C 
BRANCH  34  35
ATOM     35  C   ASN A   6      27.993   6.642 -10.416  1.00  0.00     0.326 C 
ATOM     36  O   ASN A   6      28.794   7.579 -10.677  1.00  0.00    -0.250 OA
BRANCH  35  37
ATOM     37  OXT ASN A   6      28.451   5.499  -9.768  1.00  0.00    -0.480 OA
ATOM     38  H   UNL     1      29.424   5.409  -9.499  1.00  0.00     0.296 HD
ENDBRANCH  35  37
ENDBRANCH  34  35
BRANCH  34  39
ATOM     39  CB  ASN A   6      26.424   6.946 -12.323  1.00  0.00     0.136 C 
BRANCH  39  40
ATOM     40  CG  ASN A   6      25.010   7.180 -12.773  1.00  0.00     0.220 C 
ATOM     41  ND2 ASN A   6      24.753   8.090 -13.833  1.00  0.00    -0.370 N 
ATOM     42  OD1 ASN A   6      24.053   6.558 -12.243  1.00  0.00    -0.275 OA
ATOM     43  H   UNL     1      25.533   8.600 -14.306  1.00  0.00     0.159 HD
ATOM     44  H   UNL     1      23.775   8.258 -14.156  1.00  0.00     0.159 HD
ENDBRANCH  39  40
ENDBRANCH  34  39
ENDBRANCH  31  34
ENDBRANCH  29  30
BRANCH  29  45
ATOM     45  CB  ARG A   5      25.863   9.605  -6.796  1.00  0.00     0.037 C 
BRANCH  45  46
ATOM     46  CG  ARG A   5      25.166  10.859  -6.270  1.00  0.00     0.024 C 
BRANCH  46  47
ATOM     47  CD  ARG A   5      25.842  11.390  -5.014  1.00  0.00     0.116 C 
BRANCH  47  48
ATOM     48  NE  ARG A   5      25.378  10.687  -3.820  1.00  0.00    -0.357 N 
ATOM     49  CZ  ARG A   5      25.470  11.282  -2.526  1.00  0.00     0.185 C 
ATOM     50  NH2 ARG A   5      26.109  12.546  -2.351  1.00  0.00    -0.370 N 
ATOM     51  H   UNL     1      24.899   9.761  -3.912  1.00  0.00     0.163 HD
ATOM     52  H   UNL     1      26.084  13.022  -1.422  1.00  0.00     0.159 HD
ATOM     53  H   UNL     1      26.699  12.981  -3.092  1.00  0.00     0.159 HD
BRANCH  49  54
ATOM     54  NH1 ARG A   5      24.956  10.671  -1.506  1.00  0.00    -0.270 NA
ATOM     55  H   UNL     1      24.999  11.075  -0.544  1.00  0.00     0.191 HD
ENDBRANCH  49  54
ENDBRANCH  47  48
ENDBRANCH  46  47
ENDBRANCH  45  46
ENDBRANCH  29  45
ENDBRANCH  26  29
ENDBRANCH  24  25
BRANCH  24  56
ATOM     56  CB  LEU A   4      20.654   7.999  -9.270  1.00  0.00     0.038 C 
BRANCH  56  57
ATOM     57  CG  LEU A   4      21.448   6.772  -9.767  1.00  0.00    -0.015 C 
ATOM     58  CD1 LEU A   4      21.762   5.779  -8.639  1.00  0.00     0.007 C 
ATOM     59  CD2 LEU A   4      20.662   6.068 -10.877  1.00  0.00     0.007 C 
ENDBRANCH  56  57
ENDBRANCH  24  56
ENDBRANCH   3  24
TORSDOF 24
