REMARK SMILES CC(C)C[C@H](NC(=O)[C@H](Cc1ccccc1)NC(=O)[C@@H](N)CO)C(=O)N[C@@H](Cc1c[nH]cn1)C(=O)N[C@@H](CCCNC(=N)N)C(=O)N[C@@H](CCCNC(=N)N)C(=O)O
REMARK SMILES IDX 34 1 35 2 36 3 27 5 26 6 24 7 25 8 5 10 6 11 7 12 8 13 9 15
REMARK SMILES IDX 17 16 18 17 19 18 20 20 21 21 22 24 23 25 10 27 11 28 12 29
REMARK SMILES IDX 16 30 13 31 15 32 14 33 4 34 2 35 1 36 3 37 28 38 29 39
REMARK SMILES IDX 33 40 30 41 32 42 31 43 37 45 45 46 47 47 46 48 48 50 56 51
REMARK SMILES IDX 57 52 58 53 49 55 50 56 51 57 52 58 53 59 55 60 54 64 38 66
REMARK SMILES IDX 39 67 40 68 41 69 42 70 44 71 43 75
REMARK H PARENT 36 4 26 9 6 14 17 19 21 22 21 23 23 26 31 44 47 49 58 54 52 61
REMARK H PARENT 55 62 55 63 54 65 41 72 44 73 44 74 43 76
ROOT
ATOM      1  C   HIS A   4      22.713   9.205  -8.529  1.00  0.00     0.243 C 
ATOM      2  O   HIS A   4      22.881  10.032  -9.467  1.00  0.00    -0.273 OA
ATOM      3  N   ARG A   5      23.819   8.708  -7.789  1.00  0.00    -0.343 N 
ATOM      4  H   UNL     1      23.662   7.981  -7.054  1.00  0.00     0.164 HD
ENDROOT
BRANCH   1   5
ATOM      5  CA  HIS A   4      21.346   8.746  -8.161  1.00  0.00     0.177 C 
BRANCH   5   6
ATOM      6  N   HIS A   4      20.565   9.910  -7.789  1.00  0.00    -0.342 N 
ATOM      7  C   LEU A   3      20.054  10.081  -6.478  1.00  0.00     0.243 C 
ATOM      8  O   LEU A   3      20.167   9.158  -5.624  1.00  0.00    -0.273 OA
ATOM      9  H   UNL     1      20.400  10.651  -8.509  1.00  0.00     0.164 HD
BRANCH   7  10
ATOM     10  CA  LEU A   3      19.341  11.352  -6.148  1.00  0.00     0.171 C 
BRANCH  10  11
ATOM     11  N   LEU A   3      18.083  11.020  -5.539  1.00  0.00    -0.343 N 
ATOM     12  C   PHE A   2      16.887  11.745  -5.777  1.00  0.00     0.243 C 
ATOM     13  O   PHE A   2      16.905  12.795  -6.475  1.00  0.00    -0.273 OA
ATOM     14  H   UNL     1      18.155  10.385  -4.720  1.00  0.00     0.164 HD
BRANCH  12  15
ATOM     15  CA  PHE A   2      15.651  11.312  -5.058  1.00  0.00     0.175 C 
BRANCH  15  16
ATOM     16  N   PHE A   2      14.454  11.739  -5.768  1.00  0.00    -0.343 N 
ATOM     17  C   SER A   1      13.914  13.049  -5.635  1.00  0.00     0.239 C 
ATOM     18  O   SER A   1      14.449  13.868  -4.838  1.00  0.00    -0.273 OA
ATOM     19  H   UNL     1      13.869  10.999  -6.214  1.00  0.00     0.164 HD
BRANCH  17  20
ATOM     20  CA  SER A   1      12.655  13.411  -6.385  1.00  0.00     0.167 C 
BRANCH  20  21
ATOM     21  N   SER A   1      12.469  14.864  -6.382  1.00  0.00    -0.318 NA
ATOM     22  H   UNL     1      11.566  15.088  -6.858  1.00  0.00     0.119 HD
ATOM     23  H   UNL     1      12.337  15.180  -5.393  1.00  0.00     0.119 HD
ENDBRANCH  20  21
BRANCH  20  24
ATOM     24  CB  SER A   1      12.697  12.894  -7.842  1.00  0.00     0.184 C 
BRANCH  24  25
ATOM     25  OG  SER A   1      11.441  13.036  -8.447  1.00  0.00    -0.394 OA
ATOM     26  H   UNL     1      11.456  13.890  -8.954  1.00  0.00     0.210 HD
ENDBRANCH  24  25
ENDBRANCH  20  24
ENDBRANCH  17  20
ENDBRANCH  15  16
BRANCH  15  27
ATOM     27  CB  PHE A   2      15.610   9.773  -4.880  1.00  0.00     0.070 C 
BRANCH  27  28
ATOM     28  CG  PHE A   2      14.435   9.291  -4.091  1.00  0.00    -0.045 A 
ATOM     29  CD1 PHE A   2      13.897  10.048  -3.033  1.00  0.00     0.004 A 
ATOM     30  CD2 PHE A   2      13.964   7.990  -4.310  1.00  0.00     0.004 A 
ATOM     31  CE1 PHE A   2      12.865   9.535  -2.258  1.00  0.00     0.000 A 
ATOM     32  CE2 PHE A   2      12.937   7.476  -3.520  1.00  0.00     0.000 A 
ATOM     33  CZ  PHE A   2      12.384   8.251  -2.500  1.00  0.00     0.000 A 
ENDBRANCH  27  28
ENDBRANCH  15  27
ENDBRANCH  12  15
ENDBRANCH  10  11
BRANCH  10  34
ATOM     34  CB  LEU A   3      20.165  12.251  -5.216  1.00  0.00     0.038 C 
BRANCH  34  35
ATOM     35  CG  LEU A   3      20.417  11.678  -3.791  1.00  0.00    -0.015 C 
ATOM     36  CD1 LEU A   3      21.819  12.065  -3.317  1.00  0.00     0.007 C 
ATOM     37  CD2 LEU A   3      19.369  12.169  -2.781  1.00  0.00     0.007 C 
ENDBRANCH  34  35
ENDBRANCH  10  34
ENDBRANCH   7  10
ENDBRANCH   5   6
BRANCH   5  38
ATOM     38  CB  HIS A   4      20.661   8.001  -9.309  1.00  0.00     0.093 C 
BRANCH  38  39
ATOM     39  CG  HIS A   4      21.431   6.784  -9.740  1.00  0.00     0.061 A 
ATOM     40  ND1 HIS A   4      21.844   6.562 -11.003  1.00  0.00    -0.242 NA
ATOM     41  CD2 HIS A   4      21.774   5.715  -8.941  1.00  0.00     0.107 A 
ATOM     42  CE1 HIS A   4      22.445   5.355 -10.940  1.00  0.00     0.196 A 
ATOM     43  NE2 HIS A   4      22.419   4.822  -9.704  1.00  0.00    -0.351 N 
ATOM     44  H   UNL     1      22.809   3.901  -9.405  1.00  0.00     0.167 HD
ENDBRANCH  38  39
ENDBRANCH   5  38
ENDBRANCH   1   5
BRANCH   3  45
ATOM     45  CA  ARG A   5      25.183   9.116  -8.069  1.00  0.00     0.171 C 
BRANCH  45  46
ATOM     46  C   ARG A   5      25.902   7.965  -8.683  1.00  0.00     0.243 C 
ATOM     47  N   ARG A   6      25.923   7.875 -10.099  1.00  0.00    -0.341 N 
ATOM     48  O   ARG A   5      26.446   7.080  -7.970  1.00  0.00    -0.273 OA
ATOM     49  H   UNL     1      25.569   8.701 -10.634  1.00  0.00     0.164 HD
BRANCH  47  50
ATOM     50  CA  ARG A   6      26.537   6.766 -10.820  1.00  0.00     0.192 C 
BRANCH  50  51
ATOM     51  C   ARG A   6      27.985   6.639 -10.427  1.00  0.00     0.326 C 
ATOM     52  O   ARG A   6      28.795   7.573 -10.674  1.00  0.00    -0.250 OA
BRANCH  51  53
ATOM     53  OXT ARG A   6      28.430   5.484  -9.791  1.00  0.00    -0.480 OA
ATOM     54  H   UNL     1      29.400   5.384  -9.517  1.00  0.00     0.296 HD
ENDBRANCH  51  53
ENDBRANCH  50  51
BRANCH  50  55
ATOM     55  CB  ARG A   6      26.428   7.018 -12.334  1.00  0.00     0.039 C 
BRANCH  55  56
ATOM     56  CG  ARG A   6      24.966   7.115 -12.814  1.00  0.00     0.024 C 
BRANCH  56  57
ATOM     57  CD  ARG A   6      24.821   7.988 -14.066  1.00  0.00     0.116 C 
BRANCH  57  58
ATOM     58  NE  ARG A   6      25.014   9.403 -13.742  1.00  0.00    -0.357 N 
ATOM     59  CZ  ARG A   6      24.102  10.197 -12.959  1.00  0.00     0.185 C 
ATOM     60  NH2 ARG A   6      24.511  11.487 -12.505  1.00  0.00    -0.370 N 
ATOM     61  H   UNL     1      25.889   9.860 -14.085  1.00  0.00     0.163 HD
ATOM     62  H   UNL     1      23.866  12.079 -11.937  1.00  0.00     0.159 HD
ATOM     63  H   UNL     1      25.465  11.848 -12.725  1.00  0.00     0.159 HD
BRANCH  59  64
ATOM     64  NH1 ARG A   6      22.910   9.776 -12.666  1.00  0.00    -0.270 NA
ATOM     65  H   UNL     1      22.530   8.854 -12.968  1.00  0.00     0.191 HD
ENDBRANCH  59  64
ENDBRANCH  57  58
ENDBRANCH  56  57
ENDBRANCH  55  56
ENDBRANCH  50  55
ENDBRANCH  47  50
ENDBRANCH  45  46
BRANCH  45  66
ATOM     66  CB  ARG A   5      25.856   9.600  -6.791  1.00  0.00     0.037 C 
BRANCH  66  67
ATOM     67  CG  ARG A   5      25.165  10.860  -6.272  1.00  0.00     0.024 C 
BRANCH  67  68
ATOM     68  CD  ARG A   5      25.838  11.392  -5.015  1.00  0.00     0.116 C 
BRANCH  68  69
ATOM     69  NE  ARG A   5      25.376  10.684  -3.823  1.00  0.00    -0.357 N 
ATOM     70  CZ  ARG A   5      25.467  11.279  -2.527  1.00  0.00     0.185 C 
ATOM     71  NH2 ARG A   5      26.106  12.541  -2.351  1.00  0.00    -0.370 N 
ATOM     72  H   UNL     1      24.898   9.759  -3.922  1.00  0.00     0.163 HD
ATOM     73  H   UNL     1      26.082  13.007  -1.417  1.00  0.00     0.159 HD
ATOM     74  H   UNL     1      26.691  12.983  -3.092  1.00  0.00     0.159 HD
BRANCH  70  75
ATOM     75  NH1 ARG A   5      24.956  10.679  -1.500  1.00  0.00    -0.270 NA
ATOM     76  H   UNL     1      24.474   9.757  -1.584  1.00  0.00     0.191 HD
ENDBRANCH  70  75
ENDBRANCH  68  69
ENDBRANCH  67  68
ENDBRANCH  66  67
ENDBRANCH  45  66
ENDBRANCH   3  45
TORSDOF 31
