REMARK SMILES CC(C)C[C@H](NC(=O)[C@H](CO)NC(=O)[C@H](Cc1ccccc1)NC(=O)[C@@H](N)CO)C(=O)N[C@@H](CCCNC(=N)N)C(=O)N[C@@H](CCC(N)=O)C(=O)O
REMARK SMILES IDX 7 1 8 2 6 3 9 5 12 6 13 7 14 8 15 10 23 11 24 12 25 13 26 15
REMARK SMILES IDX 27 16 28 19 29 20 16 22 17 23 18 24 22 25 19 26 21 27 20 28
REMARK SMILES IDX 10 29 11 30 5 32 30 33 32 34 31 35 33 37 41 38 43 39 42 40
REMARK SMILES IDX 44 42 50 43 51 44 52 45 45 47 46 48 47 49 48 50 49 51 34 54
REMARK SMILES IDX 35 55 36 56 37 57 38 58 40 59 39 63 4 65 2 66 1 67 3 68
REMARK H PARENT 6 4 12 9 23 14 27 17 27 18 29 21 11 31 32 36 43 41 52 46 48 52
REMARK H PARENT 48 53 37 60 40 61 40 62 39 64
ROOT
ATOM      1  C   SER A   3      20.047  10.097  -6.462  1.00  0.00     0.245 C 
ATOM      2  O   SER A   3      20.170   9.190  -5.591  1.00  0.00    -0.273 OA
ATOM      3  N   LEU A   4      20.562   9.920  -7.772  1.00  0.00    -0.342 N 
ATOM      4  H   UNL     1      20.395  10.657  -8.496  1.00  0.00     0.164 HD
ENDROOT
BRANCH   1   5
ATOM      5  CA  SER A   3      19.343  11.371  -6.140  1.00  0.00     0.197 C 
BRANCH   5   6
ATOM      6  N   SER A   3      18.095  11.057  -5.493  1.00  0.00    -0.340 N 
ATOM      7  C   PHE A   2      16.889  11.750  -5.772  1.00  0.00     0.243 C 
ATOM      8  O   PHE A   2      16.901  12.791  -6.486  1.00  0.00    -0.273 OA
ATOM      9  H   UNL     1      18.183  10.546  -4.587  1.00  0.00     0.164 HD
BRANCH   7  10
ATOM     10  CA  PHE A   2      15.654  11.313  -5.059  1.00  0.00     0.175 C 
BRANCH  10  11
ATOM     11  N   PHE A   2      14.456  11.740  -5.768  1.00  0.00    -0.343 N 
ATOM     12  C   SER A   1      13.918  13.049  -5.633  1.00  0.00     0.239 C 
ATOM     13  O   SER A   1      14.449  13.867  -4.832  1.00  0.00    -0.273 OA
ATOM     14  H   UNL     1      13.867  11.001  -6.210  1.00  0.00     0.164 HD
BRANCH  12  15
ATOM     15  CA  SER A   1      12.662  13.411  -6.386  1.00  0.00     0.167 C 
BRANCH  15  16
ATOM     16  N   SER A   1      12.454  14.860  -6.398  1.00  0.00    -0.318 NA
ATOM     17  H   UNL     1      12.286  15.190  -5.420  1.00  0.00     0.119 HD
ATOM     18  H   UNL     1      13.315  15.337  -6.756  1.00  0.00     0.119 HD
ENDBRANCH  15  16
BRANCH  15  19
ATOM     19  CB  SER A   1      12.690  12.886  -7.840  1.00  0.00     0.184 C 
BRANCH  19  20
ATOM     20  OG  SER A   1      11.438  13.053  -8.445  1.00  0.00    -0.394 OA
ATOM     21  H   UNL     1      10.839  12.361  -8.060  1.00  0.00     0.210 HD
ENDBRANCH  19  20
ENDBRANCH  15  19
ENDBRANCH  12  15
ENDBRANCH  10  11
BRANCH  10  22
ATOM     22  CB  PHE A   2      15.618   9.774  -4.891  1.00  0.00     0.070 C 
BRANCH  22  23
ATOM     23  CG  PHE A   2      14.448   9.289  -4.089  1.00  0.00    -0.045 A 
ATOM     24  CD1 PHE A   2      13.906  10.046  -3.033  1.00  0.00     0.004 A 
ATOM     25  CD2 PHE A   2      13.971   7.990  -4.310  1.00  0.00     0.004 A 
ATOM     26  CE1 PHE A   2      12.870   9.536  -2.261  1.00  0.00     0.000 A 
ATOM     27  CE2 PHE A   2      12.941   7.477  -3.522  1.00  0.00     0.000 A 
ATOM     28  CZ  PHE A   2      12.387   8.253  -2.503  1.00  0.00     0.000 A 
ENDBRANCH  22  23
ENDBRANCH  10  22
ENDBRANCH   7  10
ENDBRANCH   5   6
BRANCH   5  29
ATOM     29  CB  SER A   3      20.184  12.267  -5.227  1.00  0.00     0.191 C 
BRANCH  29  30
ATOM     30  OG  SER A   3      20.455  11.647  -3.996  1.00  0.00    -0.394 OA
ATOM     31  H   UNL     1      21.322  11.173  -4.095  1.00  0.00     0.210 HD
ENDBRANCH  29  30
ENDBRANCH   5  29
ENDBRANCH   1   5
BRANCH   3  32
ATOM     32  CA  LEU A   4      21.347   8.759  -8.138  1.00  0.00     0.171 C 
BRANCH  32  33
ATOM     33  C   LEU A   4      22.713   9.215  -8.518  1.00  0.00     0.243 C 
ATOM     34  N   ARG A   5      23.821   8.719  -7.782  1.00  0.00    -0.343 N 
ATOM     35  O   LEU A   4      22.877  10.031  -9.466  1.00  0.00    -0.273 OA
ATOM     36  H   UNL     1      23.665   8.030  -7.012  1.00  0.00     0.164 HD
BRANCH  34  37
ATOM     37  CA  ARG A   5      25.185   9.121  -8.068  1.00  0.00     0.171 C 
BRANCH  37  38
ATOM     38  C   ARG A   5      25.899   7.968  -8.682  1.00  0.00     0.243 C 
ATOM     39  N   GLN A   6      25.930   7.882 -10.099  1.00  0.00    -0.341 N 
ATOM     40  O   ARG A   5      26.440   7.080  -7.969  1.00  0.00    -0.273 OA
ATOM     41  H   UNL     1      25.623   8.727 -10.632  1.00  0.00     0.164 HD
BRANCH  39  42
ATOM     42  CA  GLN A   6      26.536   6.765 -10.812  1.00  0.00     0.192 C 
BRANCH  42  43
ATOM     43  C   GLN A   6      27.987   6.641 -10.427  1.00  0.00     0.326 C 
ATOM     44  O   GLN A   6      28.795   7.575 -10.678  1.00  0.00    -0.250 OA
BRANCH  43  45
ATOM     45  OXT GLN A   6      28.438   5.486  -9.795  1.00  0.00    -0.480 OA
ATOM     46  H   UNL     1      29.411   5.385  -9.530  1.00  0.00     0.296 HD
ENDBRANCH  43  45
ENDBRANCH  42  43
BRANCH  42  47
ATOM     47  CB  GLN A   6      26.418   6.992 -12.330  1.00  0.00     0.047 C 
BRANCH  47  48
ATOM     48  CG  GLN A   6      24.963   7.130 -12.823  1.00  0.00     0.102 C 
BRANCH  48  49
ATOM     49  CD  GLN A   6      24.220   5.822 -12.914  1.00  0.00     0.217 C 
ATOM     50  NE2 GLN A   6      22.910   5.797 -13.478  1.00  0.00    -0.370 N 
ATOM     51  OE1 GLN A   6      24.738   4.747 -12.506  1.00  0.00    -0.275 OA
ATOM     52  H   UNL     1      22.456   6.678 -13.807  1.00  0.00     0.159 HD
ATOM     53  H   UNL     1      22.390   4.896 -13.565  1.00  0.00     0.159 HD
ENDBRANCH  48  49
ENDBRANCH  47  48
ENDBRANCH  42  47
ENDBRANCH  39  42
ENDBRANCH  37  38
BRANCH  37  54
ATOM     54  CB  ARG A   5      25.862   9.604  -6.792  1.00  0.00     0.037 C 
BRANCH  54  55
ATOM     55  CG  ARG A   5      25.167  10.860  -6.269  1.00  0.00     0.024 C 
BRANCH  55  56
ATOM     56  CD  ARG A   5      25.841  11.391  -5.013  1.00  0.00     0.116 C 
BRANCH  56  57
ATOM     57  NE  ARG A   5      25.377  10.687  -3.819  1.00  0.00    -0.357 N 
ATOM     58  CZ  ARG A   5      25.469  11.282  -2.526  1.00  0.00     0.185 C 
ATOM     59  NH2 ARG A   5      26.109  12.546  -2.351  1.00  0.00    -0.370 N 
ATOM     60  H   UNL     1      24.897   9.763  -3.911  1.00  0.00     0.163 HD
ATOM     61  H   UNL     1      26.699  12.981  -3.092  1.00  0.00     0.159 HD
ATOM     62  H   UNL     1      26.083  13.022  -1.422  1.00  0.00     0.159 HD
BRANCH  58  63
ATOM     63  NH1 ARG A   5      24.956  10.671  -1.506  1.00  0.00    -0.270 NA
ATOM     64  H   UNL     1      24.998  11.075  -0.544  1.00  0.00     0.191 HD
ENDBRANCH  58  63
ENDBRANCH  56  57
ENDBRANCH  55  56
ENDBRANCH  54  55
ENDBRANCH  37  54
ENDBRANCH  34  37
ENDBRANCH  32  33
BRANCH  32  65
ATOM     65  CB  LEU A   4      20.657   7.999  -9.273  1.00  0.00     0.038 C 
BRANCH  65  66
ATOM     66  CG  LEU A   4      21.449   6.769  -9.771  1.00  0.00    -0.015 C 
ATOM     67  CD1 LEU A   4      21.765   5.779  -8.639  1.00  0.00     0.007 C 
ATOM     68  CD2 LEU A   4      20.656   6.064 -10.873  1.00  0.00     0.007 C 
ENDBRANCH  65  66
ENDBRANCH  32  65
ENDBRANCH   3  32
TORSDOF 29
