REMARK SMILES CC(C)C[C@H](NC(=O)[C@H](Cc1ccccc1)NC(=O)[C@@H](N)CO)C(=O)N[C@@H](C)C(=O)N[C@@H](CCCNC(=N)N)C(=O)N[C@@H](CCC(N)=O)C(=O)O
REMARK SMILES IDX 24 1 25 2 26 3 5 5 6 6 7 7 8 8 9 10 17 11 18 12 19 13 20 15
REMARK SMILES IDX 21 16 22 19 23 20 10 22 11 23 12 24 16 25 13 26 15 27 14 28
REMARK SMILES IDX 4 29 2 30 1 31 3 32 27 33 28 34 29 35 31 36 30 37 32 39
REMARK SMILES IDX 40 40 42 41 41 42 43 44 49 45 50 46 51 47 44 49 45 50 46 51
REMARK SMILES IDX 47 52 48 53 33 56 34 57 35 58 36 59 37 60 39 61 38 65
REMARK H PARENT 26 4 6 9 17 14 21 17 21 18 23 21 31 38 42 43 51 48 47 54 47 55
REMARK H PARENT 36 62 39 63 39 64 38 66
ROOT
ATOM      1  C   LEU A   3      20.054  10.082  -6.477  1.00  0.00     0.243 C 
ATOM      2  O   LEU A   3      20.167   9.159  -5.624  1.00  0.00    -0.273 OA
ATOM      3  N   ALA A   4      20.566   9.913  -7.786  1.00  0.00    -0.343 N 
ATOM      4  H   UNL     1      20.405  10.655  -8.505  1.00  0.00     0.164 HD
ENDROOT
BRANCH   1   5
ATOM      5  CA  LEU A   3      19.341  11.353  -6.147  1.00  0.00     0.171 C 
BRANCH   5   6
ATOM      6  N   LEU A   3      18.083  11.020  -5.538  1.00  0.00    -0.343 N 
ATOM      7  C   PHE A   2      16.886  11.745  -5.776  1.00  0.00     0.243 C 
ATOM      8  O   PHE A   2      16.905  12.796  -6.475  1.00  0.00    -0.273 OA
ATOM      9  H   UNL     1      18.155  10.386  -4.718  1.00  0.00     0.164 HD
BRANCH   7  10
ATOM     10  CA  PHE A   2      15.651  11.313  -5.057  1.00  0.00     0.175 C 
BRANCH  10  11
ATOM     11  N   PHE A   2      14.454  11.739  -5.769  1.00  0.00    -0.343 N 
ATOM     12  C   SER A   1      13.914  13.049  -5.636  1.00  0.00     0.239 C 
ATOM     13  O   SER A   1      14.449  13.868  -4.838  1.00  0.00    -0.273 OA
ATOM     14  H   UNL     1      13.868  10.999  -6.214  1.00  0.00     0.164 HD
BRANCH  12  15
ATOM     15  CA  SER A   1      12.654  13.411  -6.385  1.00  0.00     0.167 C 
BRANCH  15  16
ATOM     16  N   SER A   1      12.468  14.864  -6.382  1.00  0.00    -0.318 NA
ATOM     17  H   UNL     1      11.565  15.088  -6.857  1.00  0.00     0.119 HD
ATOM     18  H   UNL     1      12.337  15.179  -5.393  1.00  0.00     0.119 HD
ENDBRANCH  15  16
BRANCH  15  19
ATOM     19  CB  SER A   1      12.696  12.894  -7.842  1.00  0.00     0.184 C 
BRANCH  19  20
ATOM     20  OG  SER A   1      11.440  13.036  -8.447  1.00  0.00    -0.394 OA
ATOM     21  H   UNL     1      11.454  13.890  -8.953  1.00  0.00     0.210 HD
ENDBRANCH  19  20
ENDBRANCH  15  19
ENDBRANCH  12  15
ENDBRANCH  10  11
BRANCH  10  22
ATOM     22  CB  PHE A   2      15.610   9.773  -4.881  1.00  0.00     0.070 C 
BRANCH  22  23
ATOM     23  CG  PHE A   2      14.435   9.292  -4.092  1.00  0.00    -0.045 A 
ATOM     24  CD1 PHE A   2      13.898  10.048  -3.033  1.00  0.00     0.004 A 
ATOM     25  CD2 PHE A   2      13.964   7.991  -4.310  1.00  0.00     0.004 A 
ATOM     26  CE1 PHE A   2      12.866   9.535  -2.258  1.00  0.00     0.000 A 
ATOM     27  CE2 PHE A   2      12.937   7.477  -3.520  1.00  0.00     0.000 A 
ATOM     28  CZ  PHE A   2      12.384   8.251  -2.500  1.00  0.00     0.000 A 
ENDBRANCH  22  23
ENDBRANCH  10  22
ENDBRANCH   7  10
ENDBRANCH   5   6
BRANCH   5  29
ATOM     29  CB  LEU A   3      20.164  12.252  -5.216  1.00  0.00     0.038 C 
BRANCH  29  30
ATOM     30  CG  LEU A   3      20.417  11.679  -3.791  1.00  0.00    -0.015 C 
ATOM     31  CD1 LEU A   3      21.819  12.066  -3.316  1.00  0.00     0.007 C 
ATOM     32  CD2 LEU A   3      19.369  12.170  -2.781  1.00  0.00     0.007 C 
ENDBRANCH  29  30
ENDBRANCH   5  29
ENDBRANCH   1   5
BRANCH   3  33
ATOM     33  CA  ALA A   4      21.342   8.746  -8.158  1.00  0.00     0.168 C 
ATOM     34  CB  ALA A   4      20.658   8.005  -9.297  1.00  0.00     0.041 C 
BRANCH  33  35
ATOM     35  C   ALA A   4      22.710   9.194  -8.534  1.00  0.00     0.242 C 
ATOM     36  N   ARG A   5      23.816   8.705  -7.790  1.00  0.00    -0.343 N 
ATOM     37  O   ALA A   4      22.878  10.023  -9.471  1.00  0.00    -0.273 OA
ATOM     38  H   UNL     1      23.660   7.983  -7.049  1.00  0.00     0.164 HD
BRANCH  36  39
ATOM     39  CA  ARG A   5      25.180   9.116  -8.069  1.00  0.00     0.171 C 
BRANCH  39  40
ATOM     40  C   ARG A   5      25.901   7.967  -8.683  1.00  0.00     0.243 C 
ATOM     41  N   GLN A   6      25.932   7.881 -10.100  1.00  0.00    -0.341 N 
ATOM     42  O   ARG A   5      26.443   7.081  -7.970  1.00  0.00    -0.273 OA
ATOM     43  H   UNL     1      25.615   8.720 -10.635  1.00  0.00     0.164 HD
BRANCH  41  44
ATOM     44  CA  GLN A   6      26.542   6.764 -10.810  1.00  0.00     0.192 C 
BRANCH  44  45
ATOM     45  C   GLN A   6      27.993   6.644 -10.428  1.00  0.00     0.326 C 
ATOM     46  O   GLN A   6      28.797   7.580 -10.680  1.00  0.00    -0.250 OA
BRANCH  45  47
ATOM     47  OXT GLN A   6      28.449   5.490  -9.797  1.00  0.00    -0.480 OA
ATOM     48  H   UNL     1      29.422   5.393  -9.533  1.00  0.00     0.296 HD
ENDBRANCH  45  47
ENDBRANCH  44  45
BRANCH  44  49
ATOM     49  CB  GLN A   6      26.416   6.973 -12.331  1.00  0.00     0.047 C 
BRANCH  49  50
ATOM     50  CG  GLN A   6      24.967   7.146 -12.819  1.00  0.00     0.102 C 
BRANCH  50  51
ATOM     51  CD  GLN A   6      24.125   5.941 -12.517  1.00  0.00     0.217 C 
ATOM     52  NE2 GLN A   6      23.330   5.896 -11.332  1.00  0.00    -0.370 N 
ATOM     53  OE1 GLN A   6      24.145   4.950 -13.295  1.00  0.00    -0.275 OA
ATOM     54  H   UNL     1      23.338   6.692 -10.658  1.00  0.00     0.159 HD
ATOM     55  H   UNL     1      22.747   5.056 -11.119  1.00  0.00     0.159 HD
ENDBRANCH  50  51
ENDBRANCH  49  50
ENDBRANCH  44  49
ENDBRANCH  41  44
ENDBRANCH  39  40
BRANCH  39  56
ATOM     56  CB  ARG A   5      25.854   9.598  -6.790  1.00  0.00     0.037 C 
BRANCH  56  57
ATOM     57  CG  ARG A   5      25.162  10.857  -6.269  1.00  0.00     0.024 C 
BRANCH  57  58
ATOM     58  CD  ARG A   5      25.838  11.390  -5.014  1.00  0.00     0.116 C 
BRANCH  58  59
ATOM     59  NE  ARG A   5      25.377  10.686  -3.819  1.00  0.00    -0.357 N 
ATOM     60  CZ  ARG A   5      25.469  11.281  -2.526  1.00  0.00     0.185 C 
ATOM     61  NH2 ARG A   5      26.107  12.546  -2.352  1.00  0.00    -0.370 N 
ATOM     62  H   UNL     1      24.893   9.763  -3.911  1.00  0.00     0.163 HD
ATOM     63  H   UNL     1      26.080  13.024  -1.424  1.00  0.00     0.159 HD
ATOM     64  H   UNL     1      26.696  12.982  -3.094  1.00  0.00     0.159 HD
BRANCH  60  65
ATOM     65  NH1 ARG A   5      24.955  10.672  -1.506  1.00  0.00    -0.270 NA
ATOM     66  H   UNL     1      24.995  11.077  -0.544  1.00  0.00     0.191 HD
ENDBRANCH  60  65
ENDBRANCH  58  59
ENDBRANCH  57  58
ENDBRANCH  56  57
ENDBRANCH  39  56
ENDBRANCH  36  39
ENDBRANCH  33  35
ENDBRANCH   3  33
TORSDOF 27
