REMARK SMILES CC(C)C[C@H](NC(=O)[C@H](Cc1ccccc1)NC(=O)[C@@H](N)CO)C(=O)N[C@@H](CO)C(=O)N[C@@H](CCCNC(=N)N)C(=O)N[C@@H](CCC(N)=O)C(=O)O
REMARK SMILES IDX 24 1 25 2 26 3 5 5 6 6 7 7 8 8 9 10 17 11 18 12 19 13 20 15
REMARK SMILES IDX 21 16 22 19 23 20 10 22 11 23 12 24 16 25 13 26 15 27 14 28
REMARK SMILES IDX 4 29 2 30 1 31 3 32 27 33 30 34 32 35 31 36 33 38 41 39
REMARK SMILES IDX 43 40 42 41 44 43 50 44 51 45 52 46 45 48 46 49 47 50 48 51
REMARK SMILES IDX 49 52 34 55 35 56 36 57 37 58 38 59 40 60 39 64 28 66 29 67
REMARK H PARENT 26 4 6 9 17 14 21 17 21 18 23 21 32 37 43 42 52 47 48 53 48 54
REMARK H PARENT 37 61 40 62 40 63 39 65 29 68
ROOT
ATOM      1  C   LEU A   3      20.054  10.082  -6.478  1.00  0.00     0.243 C 
ATOM      2  O   LEU A   3      20.167   9.159  -5.624  1.00  0.00    -0.273 OA
ATOM      3  N   SER A   4      20.564   9.910  -7.788  1.00  0.00    -0.340 N 
ATOM      4  H   UNL     1      20.400  10.650  -8.509  1.00  0.00     0.164 HD
ENDROOT
BRANCH   1   5
ATOM      5  CA  LEU A   3      19.341  11.352  -6.147  1.00  0.00     0.171 C 
BRANCH   5   6
ATOM      6  N   LEU A   3      18.084  11.020  -5.538  1.00  0.00    -0.343 N 
ATOM      7  C   PHE A   2      16.887  11.744  -5.776  1.00  0.00     0.243 C 
ATOM      8  O   PHE A   2      16.905  12.795  -6.474  1.00  0.00    -0.273 OA
ATOM      9  H   UNL     1      18.156  10.385  -4.719  1.00  0.00     0.164 HD
BRANCH   7  10
ATOM     10  CA  PHE A   2      15.653  11.312  -5.056  1.00  0.00     0.175 C 
BRANCH  10  11
ATOM     11  N   PHE A   2      14.456  11.739  -5.766  1.00  0.00    -0.343 N 
ATOM     12  C   SER A   1      13.919  13.049  -5.633  1.00  0.00     0.239 C 
ATOM     13  O   SER A   1      14.449  13.867  -4.832  1.00  0.00    -0.273 OA
ATOM     14  H   UNL     1      13.869  11.000  -6.212  1.00  0.00     0.164 HD
BRANCH  12  15
ATOM     15  CA  SER A   1      12.662  13.410  -6.386  1.00  0.00     0.167 C 
BRANCH  15  16
ATOM     16  N   SER A   1      12.455  14.860  -6.398  1.00  0.00    -0.318 NA
ATOM     17  H   UNL     1      12.286  15.190  -5.420  1.00  0.00     0.119 HD
ATOM     18  H   UNL     1      13.316  15.337  -6.755  1.00  0.00     0.119 HD
ENDBRANCH  15  16
BRANCH  15  19
ATOM     19  CB  SER A   1      12.690  12.886  -7.840  1.00  0.00     0.184 C 
BRANCH  19  20
ATOM     20  OG  SER A   1      11.438  13.053  -8.445  1.00  0.00    -0.394 OA
ATOM     21  H   UNL     1      10.839  12.361  -8.060  1.00  0.00     0.210 HD
ENDBRANCH  19  20
ENDBRANCH  15  19
ENDBRANCH  12  15
ENDBRANCH  10  11
BRANCH  10  22
ATOM     22  CB  PHE A   2      15.610   9.772  -4.880  1.00  0.00     0.070 C 
BRANCH  22  23
ATOM     23  CG  PHE A   2      14.435   9.292  -4.092  1.00  0.00    -0.045 A 
ATOM     24  CD1 PHE A   2      13.898  10.048  -3.033  1.00  0.00     0.004 A 
ATOM     25  CD2 PHE A   2      13.964   7.991  -4.310  1.00  0.00     0.004 A 
ATOM     26  CE1 PHE A   2      12.866   9.535  -2.258  1.00  0.00     0.000 A 
ATOM     27  CE2 PHE A   2      12.937   7.477  -3.520  1.00  0.00     0.000 A 
ATOM     28  CZ  PHE A   2      12.384   8.252  -2.500  1.00  0.00     0.000 A 
ENDBRANCH  22  23
ENDBRANCH  10  22
ENDBRANCH   7  10
ENDBRANCH   5   6
BRANCH   5  29
ATOM     29  CB  LEU A   3      20.165  12.252  -5.216  1.00  0.00     0.038 C 
BRANCH  29  30
ATOM     30  CG  LEU A   3      20.417  11.679  -3.791  1.00  0.00    -0.015 C 
ATOM     31  CD1 LEU A   3      21.819  12.066  -3.316  1.00  0.00     0.007 C 
ATOM     32  CD2 LEU A   3      19.369  12.169  -2.781  1.00  0.00     0.007 C 
ENDBRANCH  29  30
ENDBRANCH   5  29
ENDBRANCH   1   5
BRANCH   3  33
ATOM     33  CA  SER A   4      21.344   8.745  -8.158  1.00  0.00     0.197 C 
BRANCH  33  34
ATOM     34  C   SER A   4      22.711   9.200  -8.529  1.00  0.00     0.245 C 
ATOM     35  N   ARG A   5      23.818   8.706  -7.789  1.00  0.00    -0.342 N 
ATOM     36  O   SER A   4      22.878  10.033  -9.462  1.00  0.00    -0.273 OA
ATOM     37  H   UNL     1      23.662   7.981  -7.051  1.00  0.00     0.164 HD
BRANCH  35  38
ATOM     38  CA  ARG A   5      25.181   9.116  -8.069  1.00  0.00     0.171 C 
BRANCH  38  39
ATOM     39  C   ARG A   5      25.901   7.967  -8.685  1.00  0.00     0.243 C 
ATOM     40  N   GLN A   6      25.919   7.873 -10.102  1.00  0.00    -0.341 N 
ATOM     41  O   ARG A   5      26.448   7.083  -7.972  1.00  0.00    -0.273 OA
ATOM     42  H   UNL     1      25.539   8.683 -10.639  1.00  0.00     0.164 HD
BRANCH  40  43
ATOM     43  CA  GLN A   6      26.540   6.764 -10.814  1.00  0.00     0.192 C 
BRANCH  43  44
ATOM     44  C   GLN A   6      27.989   6.644 -10.423  1.00  0.00     0.326 C 
ATOM     45  O   GLN A   6      28.796   7.578 -10.677  1.00  0.00    -0.250 OA
BRANCH  44  46
ATOM     46  OXT GLN A   6      28.440   5.494  -9.782  1.00  0.00    -0.480 OA
ATOM     47  H   UNL     1      29.411   5.397  -9.512  1.00  0.00     0.296 HD
ENDBRANCH  44  46
ENDBRANCH  43  44
BRANCH  43  48
ATOM     48  CB  GLN A   6      26.424   6.978 -12.334  1.00  0.00     0.047 C 
BRANCH  48  49
ATOM     49  CG  GLN A   6      24.966   7.142 -12.818  1.00  0.00     0.102 C 
BRANCH  49  50
ATOM     50  CD  GLN A   6      24.597   8.572 -13.102  1.00  0.00     0.217 C 
ATOM     51  NE2 GLN A   6      23.459   9.166 -12.477  1.00  0.00    -0.370 N 
ATOM     52  OE1 GLN A   6      25.272   9.243 -13.929  1.00  0.00    -0.275 OA
ATOM     53  H   UNL     1      22.858   8.614 -11.828  1.00  0.00     0.159 HD
ATOM     54  H   UNL     1      23.209  10.160 -12.674  1.00  0.00     0.159 HD
ENDBRANCH  49  50
ENDBRANCH  48  49
ENDBRANCH  43  48
ENDBRANCH  40  43
ENDBRANCH  38  39
BRANCH  38  55
ATOM     55  CB  ARG A   5      25.856   9.599  -6.791  1.00  0.00     0.037 C 
BRANCH  55  56
ATOM     56  CG  ARG A   5      25.163  10.857  -6.269  1.00  0.00     0.024 C 
BRANCH  56  57
ATOM     57  CD  ARG A   5      25.838  11.390  -5.014  1.00  0.00     0.116 C 
BRANCH  57  58
ATOM     58  NE  ARG A   5      25.377  10.686  -3.820  1.00  0.00    -0.357 N 
ATOM     59  CZ  ARG A   5      25.469  11.281  -2.526  1.00  0.00     0.185 C 
ATOM     60  NH2 ARG A   5      26.107  12.546  -2.352  1.00  0.00    -0.370 N 
ATOM     61  H   UNL     1      24.894   9.763  -3.911  1.00  0.00     0.163 HD
ATOM     62  H   UNL     1      26.080  13.024  -1.424  1.00  0.00     0.159 HD
ATOM     63  H   UNL     1      26.696  12.982  -3.094  1.00  0.00     0.159 HD
BRANCH  59  64
ATOM     64  NH1 ARG A   5      24.955  10.672  -1.506  1.00  0.00    -0.270 NA
ATOM     65  H   UNL     1      24.995  11.077  -0.545  1.00  0.00     0.191 HD
ENDBRANCH  59  64
ENDBRANCH  57  58
ENDBRANCH  56  57
ENDBRANCH  55  56
ENDBRANCH  38  55
ENDBRANCH  35  38
ENDBRANCH  33  34
BRANCH  33  66
ATOM     66  CB  SER A   4      20.660   7.998  -9.301  1.00  0.00     0.191 C 
BRANCH  66  67
ATOM     67  OG  SER A   4      21.305   6.777  -9.552  1.00  0.00    -0.394 OA
ATOM     68  H   UNL     1      22.100   6.981 -10.111  1.00  0.00     0.210 HD
ENDBRANCH  66  67
ENDBRANCH  33  66
ENDBRANCH   3  33
TORSDOF 29
