REMARK SMILES CC(C)C[C@H](NC(=O)[C@H](CC(N)=O)NC(=O)[C@@H](N)CO)C(=O)N[C@@H](Cc1ccccc1)C(=O)N[C@@H](CCCNC(=N)N)C(=O)N[C@@H](CC(N)=O)C(=O)O
REMARK SMILES IDX 21 1 22 2 23 3 5 5 6 6 7 7 8 8 9 10 14 11 15 12 16 13 17 15
REMARK SMILES IDX 18 16 19 19 20 20 10 22 11 23 12 24 13 25 4 28 2 29 1 30
REMARK SMILES IDX 3 31 24 32 32 33 34 34 33 35 35 37 43 38 45 39 44 40 46 42
REMARK SMILES IDX 51 43 52 44 53 45 47 47 48 48 49 49 50 50 36 53 37 54 38 55
REMARK SMILES IDX 39 56 40 57 42 58 41 62 25 64 26 65 27 66 31 67 28 68 30 69
REMARK SMILES IDX 29 70
REMARK H PARENT 23 4 6 9 14 14 18 17 18 18 20 21 12 26 12 27 34 36 45 41 53 46
REMARK H PARENT 49 51 49 52 39 59 42 60 42 61 41 63
ROOT
ATOM      1  C   LEU A   3      20.064  10.075  -6.446  1.00  0.00     0.243 C 
ATOM      2  O   LEU A   3      20.208   9.176  -5.575  1.00  0.00    -0.273 OA
ATOM      3  N   PHE A   4      20.560   9.897  -7.768  1.00  0.00    -0.342 N 
ATOM      4  H   UNL     1      20.389  10.639  -8.485  1.00  0.00     0.164 HD
ENDROOT
BRANCH   1   5
ATOM      5  CA  LEU A   3      19.327  11.330  -6.130  1.00  0.00     0.171 C 
BRANCH   5   6
ATOM      6  N   LEU A   3      18.079  11.014  -5.488  1.00  0.00    -0.342 N 
ATOM      7  C   ASN A   2      16.877  11.734  -5.732  1.00  0.00     0.243 C 
ATOM      8  O   ASN A   2      16.894  12.778  -6.445  1.00  0.00    -0.273 OA
ATOM      9  H   UNL     1      18.147  10.372  -4.676  1.00  0.00     0.164 HD
BRANCH   7  10
ATOM     10  CA  ASN A   2      15.623  11.281  -5.035  1.00  0.00     0.180 C 
BRANCH  10  11
ATOM     11  N   ASN A   2      14.443  11.729  -5.762  1.00  0.00    -0.342 N 
ATOM     12  C   SER A   1      13.915  13.045  -5.635  1.00  0.00     0.239 C 
ATOM     13  O   SER A   1      14.453  13.863  -4.839  1.00  0.00    -0.273 OA
ATOM     14  H   UNL     1      13.858  11.002  -6.228  1.00  0.00     0.164 HD
BRANCH  12  15
ATOM     15  CA  SER A   1      12.656  13.410  -6.384  1.00  0.00     0.167 C 
BRANCH  15  16
ATOM     16  N   SER A   1      12.470  14.862  -6.379  1.00  0.00    -0.318 NA
ATOM     17  H   UNL     1      12.308  15.172  -5.393  1.00  0.00     0.119 HD
ATOM     18  H   UNL     1      11.584  15.089  -6.887  1.00  0.00     0.119 HD
ENDBRANCH  15  16
BRANCH  15  19
ATOM     19  CB  SER A   1      12.696  12.898  -7.844  1.00  0.00     0.184 C 
BRANCH  19  20
ATOM     20  OG  SER A   1      11.440  13.038  -8.449  1.00  0.00    -0.394 OA
ATOM     21  H   UNL     1      10.858  12.330  -8.067  1.00  0.00     0.210 HD
ENDBRANCH  19  20
ENDBRANCH  15  19
ENDBRANCH  12  15
ENDBRANCH  10  11
BRANCH  10  22
ATOM     22  CB  ASN A   2      15.575   9.737  -4.906  1.00  0.00     0.134 C 
BRANCH  22  23
ATOM     23  CG  ASN A   2      14.399   9.288  -4.098  1.00  0.00     0.220 C 
ATOM     24  ND2 ASN A   2      13.281   8.663  -4.728  1.00  0.00    -0.370 N 
ATOM     25  OD1 ASN A   2      14.386   9.479  -2.853  1.00  0.00    -0.275 OA
ATOM     26  H   UNL     1      12.458   8.362  -4.160  1.00  0.00     0.159 HD
ATOM     27  H   UNL     1      13.267   8.501  -5.759  1.00  0.00     0.159 HD
ENDBRANCH  22  23
ENDBRANCH  10  22
ENDBRANCH   7  10
ENDBRANCH   5   6
BRANCH   5  28
ATOM     28  CB  LEU A   3      20.152  12.336  -5.315  1.00  0.00     0.038 C 
BRANCH  28  29
ATOM     29  CG  LEU A   3      20.432  12.203  -3.791  1.00  0.00    -0.015 C 
ATOM     30  CD1 LEU A   3      21.822  11.747  -3.389  1.00  0.00     0.007 C 
ATOM     31  CD2 LEU A   3      19.302  11.893  -2.821  1.00  0.00     0.007 C 
ENDBRANCH  28  29
ENDBRANCH   5  28
ENDBRANCH   1   5
BRANCH   3  32
ATOM     32  CA  PHE A   4      21.353   8.745  -8.162  1.00  0.00     0.175 C 
BRANCH  32  33
ATOM     33  C   PHE A   4      22.717   9.229  -8.503  1.00  0.00     0.243 C 
ATOM     34  N   ARG A   5      23.823   8.718  -7.775  1.00  0.00    -0.343 N 
ATOM     35  O   PHE A   4      22.887  10.053  -9.443  1.00  0.00    -0.273 OA
ATOM     36  H   UNL     1      23.666   7.990  -7.041  1.00  0.00     0.164 HD
BRANCH  34  37
ATOM     37  CA  ARG A   5      25.187   9.119  -8.067  1.00  0.00     0.171 C 
BRANCH  37  38
ATOM     38  C   ARG A   5      25.903   7.967  -8.684  1.00  0.00     0.243 C 
ATOM     39  N   ASN A   6      25.920   7.868 -10.102  1.00  0.00    -0.341 N 
ATOM     40  O   ARG A   5      26.448   7.084  -7.970  1.00  0.00    -0.273 OA
ATOM     41  H   UNL     1      25.494   8.651 -10.650  1.00  0.00     0.164 HD
BRANCH  39  42
ATOM     42  CA  ASN A   6      26.550   6.757 -10.807  1.00  0.00     0.201 C 
BRANCH  42  43
ATOM     43  C   ASN A   6      27.999   6.647 -10.417  1.00  0.00     0.326 C 
ATOM     44  O   ASN A   6      28.800   7.583 -10.678  1.00  0.00    -0.250 OA
BRANCH  43  45
ATOM     45  OXT ASN A   6      28.455   5.504  -9.769  1.00  0.00    -0.480 OA
ATOM     46  H   UNL     1      29.427   5.413  -9.498  1.00  0.00     0.296 HD
ENDBRANCH  43  45
ENDBRANCH  42  43
BRANCH  42  47
ATOM     47  CB  ASN A   6      26.432   6.954 -12.327  1.00  0.00     0.136 C 
BRANCH  47  48
ATOM     48  CG  ASN A   6      25.020   7.187 -12.785  1.00  0.00     0.220 C 
ATOM     49  ND2 ASN A   6      24.765   8.104 -13.838  1.00  0.00    -0.370 N 
ATOM     50  OD1 ASN A   6      24.064   6.550 -12.277  1.00  0.00    -0.275 OA
ATOM     51  H   UNL     1      25.544   8.625 -14.298  1.00  0.00     0.159 HD
ATOM     52  H   UNL     1      23.788   8.266 -14.169  1.00  0.00     0.159 HD
ENDBRANCH  47  48
ENDBRANCH  42  47
ENDBRANCH  39  42
ENDBRANCH  37  38
BRANCH  37  53
ATOM     53  CB  ARG A   5      25.864   9.604  -6.792  1.00  0.00     0.037 C 
BRANCH  53  54
ATOM     54  CG  ARG A   5      25.167  10.861  -6.270  1.00  0.00     0.024 C 
BRANCH  54  55
ATOM     55  CD  ARG A   5      25.839  11.392  -5.013  1.00  0.00     0.116 C 
BRANCH  55  56
ATOM     56  NE  ARG A   5      25.376  10.685  -3.823  1.00  0.00    -0.357 N 
ATOM     57  CZ  ARG A   5      25.467  11.279  -2.527  1.00  0.00     0.185 C 
ATOM     58  NH2 ARG A   5      26.105  12.541  -2.349  1.00  0.00    -0.370 N 
ATOM     59  H   UNL     1      24.895   9.762  -3.922  1.00  0.00     0.163 HD
ATOM     60  H   UNL     1      26.692  12.983  -3.090  1.00  0.00     0.159 HD
ATOM     61  H   UNL     1      26.082  13.007  -1.414  1.00  0.00     0.159 HD
BRANCH  57  62
ATOM     62  NH1 ARG A   5      24.956  10.679  -1.499  1.00  0.00    -0.270 NA
ATOM     63  H   UNL     1      24.473   9.757  -1.584  1.00  0.00     0.191 HD
ENDBRANCH  57  62
ENDBRANCH  55  56
ENDBRANCH  54  55
ENDBRANCH  53  54
ENDBRANCH  37  53
ENDBRANCH  34  37
ENDBRANCH  32  33
BRANCH  32  64
ATOM     64  CB  PHE A   4      20.713   8.052  -9.373  1.00  0.00     0.070 C 
BRANCH  64  65
ATOM     65  CG  PHE A   4      21.249   6.656  -9.631  1.00  0.00    -0.045 A 
ATOM     66  CD1 PHE A   4      20.328   5.588  -9.636  1.00  0.00     0.004 A 
ATOM     67  CD2 PHE A   4      22.613   6.361  -9.785  1.00  0.00     0.004 A 
ATOM     68  CE1 PHE A   4      20.760   4.267  -9.766  1.00  0.00     0.000 A 
ATOM     69  CE2 PHE A   4      23.044   5.032  -9.886  1.00  0.00     0.000 A 
ATOM     70  CZ  PHE A   4      22.120   3.988  -9.881  1.00  0.00     0.000 A 
ENDBRANCH  64  65
ENDBRANCH  32  64
ENDBRANCH   3  32
TORSDOF 28
