REMARK SMILES CC(C)C[C@H](NC(=O)[C@H](C)NC(=O)[C@@H](N)CO)C(=O)N[C@@H](CC(N)=O)C(=O)N[C@@H](CCCNC(=N)N)C(=O)N[C@@H](CC(N)=O)C(=O)O
REMARK SMILES IDX 18 1 19 2 20 3 5 5 6 6 7 7 8 8 9 10 10 11 11 12 12 13 13 14
REMARK SMILES IDX 14 16 15 17 16 20 17 21 4 23 2 24 1 25 3 26 21 27 26 28
REMARK SMILES IDX 28 29 27 30 29 32 37 33 39 34 38 35 40 37 45 38 46 39 47 40
REMARK SMILES IDX 41 42 42 43 43 44 44 45 30 48 31 49 32 50 33 51 34 52 36 53
REMARK SMILES IDX 35 57 22 59 23 60 24 61 25 62
REMARK H PARENT 20 4 6 9 11 15 15 18 15 19 17 22 28 31 39 36 47 41 43 46 43 47
REMARK H PARENT 33 54 36 55 36 56 35 58 24 63 24 64
ROOT
ATOM      1  C   LEU A   3      20.046  10.074  -6.472  1.00  0.00     0.243 C 
ATOM      2  O   LEU A   3      20.167   9.150  -5.620  1.00  0.00    -0.273 OA
ATOM      3  N   ASN A   4      20.564   9.911  -7.781  1.00  0.00    -0.342 N 
ATOM      4  H   UNL     1      20.401  10.656  -8.498  1.00  0.00     0.164 HD
ENDROOT
BRANCH   1   5
ATOM      5  CA  LEU A   3      19.321  11.336  -6.135  1.00  0.00     0.171 C 
BRANCH   5   6
ATOM      6  N   LEU A   3      18.058  10.996  -5.523  1.00  0.00    -0.343 N 
ATOM      7  C   ALA A   2      16.869  11.742  -5.739  1.00  0.00     0.242 C 
ATOM      8  O   ALA A   2      16.896  12.792  -6.440  1.00  0.00    -0.273 OA
ATOM      9  H   UNL     1      18.082  10.277  -4.768  1.00  0.00     0.164 HD
BRANCH   7  10
ATOM     10  CA  ALA A   2      15.614  11.295  -5.041  1.00  0.00     0.168 C 
ATOM     11  CB  ALA A   2      15.559   9.764  -4.898  1.00  0.00     0.041 C 
BRANCH  10  12
ATOM     12  N   ALA A   2      14.436  11.734  -5.769  1.00  0.00    -0.343 N 
ATOM     13  C   SER A   1      13.909  13.049  -5.639  1.00  0.00     0.239 C 
ATOM     14  O   SER A   1      14.449  13.866  -4.842  1.00  0.00    -0.273 OA
ATOM     15  H   UNL     1      13.846  11.002  -6.222  1.00  0.00     0.164 HD
BRANCH  13  16
ATOM     16  CA  SER A   1      12.652  13.413  -6.386  1.00  0.00     0.167 C 
BRANCH  16  17
ATOM     17  N   SER A   1      12.468  14.866  -6.382  1.00  0.00    -0.318 NA
ATOM     18  H   UNL     1      11.583  15.093  -6.892  1.00  0.00     0.119 HD
ATOM     19  H   UNL     1      12.303  15.175  -5.396  1.00  0.00     0.119 HD
ENDBRANCH  16  17
BRANCH  16  20
ATOM     20  CB  SER A   1      12.694  12.901  -7.847  1.00  0.00     0.184 C 
BRANCH  20  21
ATOM     21  OG  SER A   1      11.438  13.038  -8.451  1.00  0.00    -0.394 OA
ATOM     22  H   UNL     1      10.858  12.328  -8.070  1.00  0.00     0.210 HD
ENDBRANCH  20  21
ENDBRANCH  16  20
ENDBRANCH  13  16
ENDBRANCH  10  12
ENDBRANCH   7  10
ENDBRANCH   5   6
BRANCH   5  23
ATOM     23  CB  LEU A   3      20.148  12.243  -5.213  1.00  0.00     0.038 C 
BRANCH  23  24
ATOM     24  CG  LEU A   3      20.411  11.673  -3.791  1.00  0.00    -0.015 C 
ATOM     25  CD1 LEU A   3      21.812  12.070  -3.319  1.00  0.00     0.007 C 
ATOM     26  CD2 LEU A   3      19.361  12.156  -2.782  1.00  0.00     0.007 C 
ENDBRANCH  23  24
ENDBRANCH   5  23
ENDBRANCH   1   5
BRANCH   3  27
ATOM     27  CA  ASN A   4      21.347   8.747  -8.156  1.00  0.00     0.180 C 
BRANCH  27  28
ATOM     28  C   ASN A   4      22.713   9.207  -8.528  1.00  0.00     0.243 C 
ATOM     29  N   ARG A   5      23.820   8.713  -7.789  1.00  0.00    -0.343 N 
ATOM     30  O   ASN A   4      22.879  10.032  -9.468  1.00  0.00    -0.273 OA
ATOM     31  H   UNL     1      23.664   7.991  -7.048  1.00  0.00     0.164 HD
BRANCH  29  32
ATOM     32  CA  ARG A   5      25.183   9.121  -8.071  1.00  0.00     0.171 C 
BRANCH  32  33
ATOM     33  C   ARG A   5      25.901   7.969  -8.685  1.00  0.00     0.243 C 
ATOM     34  N   ASN A   6      25.915   7.866 -10.102  1.00  0.00    -0.341 N 
ATOM     35  O   ARG A   5      26.449   7.088  -7.969  1.00  0.00    -0.273 OA
ATOM     36  H   UNL     1      25.492   8.650 -10.650  1.00  0.00     0.164 HD
BRANCH  34  37
ATOM     37  CA  ASN A   6      26.543   6.752 -10.804  1.00  0.00     0.201 C 
BRANCH  37  38
ATOM     38  C   ASN A   6      27.993   6.642 -10.416  1.00  0.00     0.326 C 
ATOM     39  O   ASN A   6      28.795   7.579 -10.677  1.00  0.00    -0.250 OA
BRANCH  38  40
ATOM     40  OXT ASN A   6      28.451   5.499  -9.769  1.00  0.00    -0.480 OA
ATOM     41  H   UNL     1      29.424   5.408  -9.500  1.00  0.00     0.296 HD
ENDBRANCH  38  40
ENDBRANCH  37  38
BRANCH  37  42
ATOM     42  CB  ASN A   6      26.426   6.948 -12.323  1.00  0.00     0.136 C 
BRANCH  42  43
ATOM     43  CG  ASN A   6      25.012   7.182 -12.773  1.00  0.00     0.220 C 
ATOM     44  ND2 ASN A   6      24.755   8.090 -13.834  1.00  0.00    -0.370 N 
ATOM     45  OD1 ASN A   6      24.055   6.562 -12.240  1.00  0.00    -0.275 OA
ATOM     46  H   UNL     1      23.776   8.258 -14.157  1.00  0.00     0.159 HD
ATOM     47  H   UNL     1      25.534   8.599 -14.309  1.00  0.00     0.159 HD
ENDBRANCH  42  43
ENDBRANCH  37  42
ENDBRANCH  34  37
ENDBRANCH  32  33
BRANCH  32  48
ATOM     48  CB  ARG A   5      25.858   9.602  -6.791  1.00  0.00     0.037 C 
BRANCH  48  49
ATOM     49  CG  ARG A   5      25.174  10.865  -6.266  1.00  0.00     0.024 C 
BRANCH  49  50
ATOM     50  CD  ARG A   5      25.852  11.381  -5.001  1.00  0.00     0.116 C 
BRANCH  50  51
ATOM     51  NE  ARG A   5      25.364  10.680  -3.816  1.00  0.00    -0.357 N 
ATOM     52  CZ  ARG A   5      25.464  11.277  -2.527  1.00  0.00     0.185 C 
ATOM     53  NH2 ARG A   5      26.094  12.548  -2.387  1.00  0.00    -0.370 N 
ATOM     54  H   UNL     1      24.872   9.762  -3.910  1.00  0.00     0.163 HD
ATOM     55  H   UNL     1      26.175  13.018  -1.457  1.00  0.00     0.159 HD
ATOM     56  H   UNL     1      26.175  13.018  -1.457  1.00  0.00     0.159 HD
BRANCH  52  57
ATOM     57  NH1 ARG A   5      24.965  10.670  -1.498  1.00  0.00    -0.270 NA
ATOM     58  H   UNL     1      25.012  11.079  -0.538  1.00  0.00     0.191 HD
ENDBRANCH  52  57
ENDBRANCH  50  51
ENDBRANCH  49  50
ENDBRANCH  48  49
ENDBRANCH  32  48
ENDBRANCH  29  32
ENDBRANCH  27  28
BRANCH  27  59
ATOM     59  CB  ASN A   4      20.661   8.002  -9.303  1.00  0.00     0.134 C 
BRANCH  59  60
ATOM     60  CG  ASN A   4      21.415   6.777  -9.755  1.00  0.00     0.220 C 
ATOM     61  ND2 ASN A   4      21.252   6.296 -11.088  1.00  0.00    -0.370 N 
ATOM     62  OD1 ASN A   4      22.120   6.121  -8.942  1.00  0.00    -0.275 OA
ATOM     63  H   UNL     1      21.713   5.408 -11.387  1.00  0.00     0.159 HD
ATOM     64  H   UNL     1      20.655   6.811 -11.773  1.00  0.00     0.159 HD
ENDBRANCH  59  60
ENDBRANCH  27  59
ENDBRANCH   3  27
TORSDOF 26
