REMARK SMILES CC(C)C[C@H](NC(=O)[C@H](C)NC(=O)[C@H](Cc1ccccc1)NC(=O)[C@@H](N)CO)C(=O)N[C@@H](CCCNC(=N)N)C(=O)NCC(=O)O
REMARK SMILES IDX 7 1 8 2 6 3 9 5 10 6 11 7 12 8 13 9 14 11 22 12 23 13 24 14
REMARK SMILES IDX 25 16 26 17 27 20 28 21 15 23 16 24 17 25 21 26 18 27 20 28
REMARK SMILES IDX 19 29 5 30 29 31 31 32 30 33 32 35 40 36 42 37 41 38 43 40
REMARK SMILES IDX 44 41 45 42 46 43 33 45 34 46 35 47 36 48 37 49 39 50 38 54
REMARK SMILES IDX 4 56 2 57 1 58 3 59
REMARK H PARENT 6 4 11 10 22 15 26 18 26 19 28 22 31 34 42 39 46 44 36 51
REMARK H PARENT 39 52 39 53 38 55
ROOT
ATOM      1  C   ALA A   3      20.046  10.101  -6.462  1.00  0.00     0.242 C 
ATOM      2  O   ALA A   3      20.175   9.200  -5.586  1.00  0.00    -0.273 OA
ATOM      3  N   LEU A   4      20.560   9.920  -7.772  1.00  0.00    -0.343 N 
ATOM      4  H   UNL     1      20.390  10.654  -8.498  1.00  0.00     0.164 HD
ENDROOT
BRANCH   1   5
ATOM      5  CA  ALA A   3      19.341  11.375  -6.146  1.00  0.00     0.168 C 
ATOM      6  CB  ALA A   3      20.179  12.246  -5.221  1.00  0.00     0.041 C 
BRANCH   5   7
ATOM      7  N   ALA A   3      18.095  11.060  -5.495  1.00  0.00    -0.343 N 
ATOM      8  C   PHE A   2      16.888  11.752  -5.774  1.00  0.00     0.243 C 
ATOM      9  O   PHE A   2      16.899  12.792  -6.488  1.00  0.00    -0.273 OA
ATOM     10  H   UNL     1      18.187  10.558  -4.585  1.00  0.00     0.164 HD
BRANCH   8  11
ATOM     11  CA  PHE A   2      15.652  11.314  -5.060  1.00  0.00     0.175 C 
BRANCH  11  12
ATOM     12  N   PHE A   2      14.453  11.740  -5.769  1.00  0.00    -0.343 N 
ATOM     13  C   SER A   1      13.915  13.050  -5.636  1.00  0.00     0.239 C 
ATOM     14  O   SER A   1      14.449  13.869  -4.839  1.00  0.00    -0.273 OA
ATOM     15  H   UNL     1      13.861  11.000  -6.206  1.00  0.00     0.164 HD
BRANCH  13  16
ATOM     16  CA  SER A   1      12.655  13.410  -6.383  1.00  0.00     0.167 C 
BRANCH  16  17
ATOM     17  N   SER A   1      12.467  14.862  -6.382  1.00  0.00    -0.318 NA
ATOM     18  H   UNL     1      11.581  15.087  -6.890  1.00  0.00     0.119 HD
ATOM     19  H   UNL     1      12.304  15.174  -5.396  1.00  0.00     0.119 HD
ENDBRANCH  16  17
BRANCH  16  20
ATOM     20  CB  SER A   1      12.695  12.893  -7.842  1.00  0.00     0.184 C 
BRANCH  20  21
ATOM     21  OG  SER A   1      11.440  13.037  -8.449  1.00  0.00    -0.394 OA
ATOM     22  H   UNL     1      10.855  12.333  -8.065  1.00  0.00     0.210 HD
ENDBRANCH  20  21
ENDBRANCH  16  20
ENDBRANCH  13  16
ENDBRANCH  11  12
BRANCH  11  23
ATOM     23  CB  PHE A   2      15.618   9.775  -4.892  1.00  0.00     0.070 C 
BRANCH  23  24
ATOM     24  CG  PHE A   2      14.449   9.289  -4.089  1.00  0.00    -0.045 A 
ATOM     25  CD1 PHE A   2      13.906  10.047  -3.033  1.00  0.00     0.004 A 
ATOM     26  CD2 PHE A   2      13.972   7.990  -4.310  1.00  0.00     0.004 A 
ATOM     27  CE1 PHE A   2      12.870   9.536  -2.261  1.00  0.00     0.000 A 
ATOM     28  CE2 PHE A   2      12.941   7.478  -3.522  1.00  0.00     0.000 A 
ATOM     29  CZ  PHE A   2      12.387   8.253  -2.503  1.00  0.00     0.000 A 
ENDBRANCH  23  24
ENDBRANCH  11  23
ENDBRANCH   8  11
ENDBRANCH   5   7
ENDBRANCH   1   5
BRANCH   3  30
ATOM     30  CA  LEU A   4      21.347   8.759  -8.137  1.00  0.00     0.171 C 
BRANCH  30  31
ATOM     31  C   LEU A   4      22.711   9.217  -8.521  1.00  0.00     0.243 C 
ATOM     32  N   ARG A   5      23.823   8.719  -7.792  1.00  0.00    -0.343 N 
ATOM     33  O   LEU A   4      22.872  10.035  -9.468  1.00  0.00    -0.273 OA
ATOM     34  H   UNL     1      23.671   8.030  -7.021  1.00  0.00     0.164 HD
BRANCH  32  35
ATOM     35  CA  ARG A   5      25.186   9.120  -8.087  1.00  0.00     0.171 C 
BRANCH  35  36
ATOM     36  C   ARG A   5      25.897   7.960  -8.698  1.00  0.00     0.243 C 
ATOM     37  N   GLY A   6      25.891   7.823 -10.117  1.00  0.00    -0.343 N 
ATOM     38  O   ARG A   5      26.454   7.092  -7.973  1.00  0.00    -0.273 OA
ATOM     39  H   UNL     1      25.398   8.536 -10.701  1.00  0.00     0.164 HD
BRANCH  37  40
ATOM     40  CA  GLY A   6      26.551   6.716 -10.794  1.00  0.00     0.238 C 
BRANCH  40  41
ATOM     41  C   GLY A   6      28.000   6.644 -10.414  1.00  0.00     0.322 C 
ATOM     42  O   GLY A   6      28.781   7.588 -10.704  1.00  0.00    -0.250 OA
BRANCH  41  43
ATOM     43  OXT GLY A   6      28.483   5.528  -9.737  1.00  0.00    -0.480 OA
ATOM     44  H   UNL     1      29.458   5.464  -9.470  1.00  0.00     0.296 HD
ENDBRANCH  41  43
ENDBRANCH  40  41
ENDBRANCH  37  40
ENDBRANCH  35  36
BRANCH  35  45
ATOM     45  CB  ARG A   5      25.865   9.606  -6.809  1.00  0.00     0.037 C 
BRANCH  45  46
ATOM     46  CG  ARG A   5      25.167  10.858  -6.276  1.00  0.00     0.024 C 
BRANCH  46  47
ATOM     47  CD  ARG A   5      25.842  11.388  -5.018  1.00  0.00     0.116 C 
BRANCH  47  48
ATOM     48  NE  ARG A   5      25.378  10.684  -3.826  1.00  0.00    -0.357 N 
ATOM     49  CZ  ARG A   5      25.468  11.278  -2.529  1.00  0.00     0.185 C 
ATOM     50  NH2 ARG A   5      26.106  12.541  -2.352  1.00  0.00    -0.370 N 
ATOM     51  H   UNL     1      24.905   9.756  -3.923  1.00  0.00     0.163 HD
ATOM     52  H   UNL     1      26.692  12.983  -3.093  1.00  0.00     0.159 HD
ATOM     53  H   UNL     1      26.084  13.006  -1.417  1.00  0.00     0.159 HD
BRANCH  49  54
ATOM     54  NH1 ARG A   5      24.959  10.678  -1.501  1.00  0.00    -0.270 NA
ATOM     55  H   UNL     1      24.478   9.755  -1.585  1.00  0.00     0.191 HD
ENDBRANCH  49  54
ENDBRANCH  47  48
ENDBRANCH  46  47
ENDBRANCH  45  46
ENDBRANCH  35  45
ENDBRANCH  32  35
ENDBRANCH  30  31
BRANCH  30  56
ATOM     56  CB  LEU A   4      20.655   7.998  -9.270  1.00  0.00     0.038 C 
BRANCH  56  57
ATOM     57  CG  LEU A   4      21.449   6.770  -9.769  1.00  0.00    -0.015 C 
ATOM     58  CD1 LEU A   4      21.763   5.778  -8.639  1.00  0.00     0.007 C 
ATOM     59  CD2 LEU A   4      20.659   6.066 -10.876  1.00  0.00     0.007 C 
ENDBRANCH  56  57
ENDBRANCH  30  56
ENDBRANCH   3  30
TORSDOF 24
