REMARK SMILES CC(C)C[C@H](NC(=O)[C@H](CC(N)=O)NC(=O)[C@@H](N)CO)C(=O)N1CCC[C@H]1C(=O)N[C@@H](CCCNC(=N)N)C(=O)N[C@@H](CC(N)=O)C(=O)O
REMARK SMILES IDX 23 1 27 2 26 3 25 4 24 5 21 6 22 7 5 8 6 9 7 10 8 11 9 13
REMARK SMILES IDX 14 14 15 15 16 16 17 18 18 19 19 22 20 23 10 25 11 26 12 27
REMARK SMILES IDX 13 28 4 31 2 32 1 33 3 34 28 35 30 36 29 37 31 39 39 40
REMARK SMILES IDX 41 41 40 42 42 44 47 45 48 46 49 47 43 49 44 50 45 51 46 52
REMARK SMILES IDX 32 55 33 56 34 57 35 58 36 59 38 60 37 64
REMARK H PARENT 6 12 14 17 18 20 18 21 20 24 12 29 12 30 30 38 41 43 49 48
REMARK H PARENT 45 53 45 54 35 61 38 62 38 63 37 65
ROOT
ATOM      1  N   PRO A   4      20.310   9.750  -8.643  1.00  0.00    -0.329 N 
ATOM      2  CA  PRO A   4      21.296   8.803  -8.137  1.00  0.00     0.174 C 
ATOM      3  CB  PRO A   4      20.946   7.471  -8.802  1.00  0.00     0.037 C 
ATOM      4  CG  PRO A   4      20.130   7.835 -10.038  1.00  0.00     0.024 C 
ATOM      5  CD  PRO A   4      19.535   9.208  -9.751  1.00  0.00     0.120 C 
ENDROOT
BRANCH   1   6
ATOM      6  C   LEU A   3      20.162  11.084  -8.117  1.00  0.00     0.245 C 
ATOM      7  O   LEU A   3      20.850  11.426  -7.116  1.00  0.00    -0.272 OA
BRANCH   6   8
ATOM      8  CA  LEU A   3      19.232  12.084  -8.779  1.00  0.00     0.171 C 
BRANCH   8   9
ATOM      9  N   LEU A   3      17.840  11.633  -8.683  1.00  0.00    -0.342 N 
ATOM     10  C   ASN A   2      16.825  12.081  -9.595  1.00  0.00     0.243 C 
ATOM     11  O   ASN A   2      17.125  12.843 -10.554  1.00  0.00    -0.273 OA
ATOM     12  H   UNL     1      17.566  10.984  -7.910  1.00  0.00     0.164 HD
BRANCH  10  13
ATOM     13  CA  ASN A   2      15.391  11.670  -9.404  1.00  0.00     0.180 C 
BRANCH  13  14
ATOM     14  N   ASN A   2      15.292  10.208  -9.338  1.00  0.00    -0.342 N 
ATOM     15  C   SER A   1      15.375   9.390 -10.514  1.00  0.00     0.239 C 
ATOM     16  O   SER A   1      15.787   9.885 -11.599  1.00  0.00    -0.273 OA
ATOM     17  H   UNL     1      15.109   9.743  -8.419  1.00  0.00     0.164 HD
BRANCH  15  18
ATOM     18  CA  SER A   1      15.009   7.926 -10.444  1.00  0.00     0.167 C 
BRANCH  18  19
ATOM     19  N   SER A   1      14.298   7.496 -11.653  1.00  0.00    -0.318 NA
ATOM     20  H   UNL     1      13.447   8.093 -11.773  1.00  0.00     0.119 HD
ATOM     21  H   UNL     1      14.907   7.640 -12.492  1.00  0.00     0.119 HD
ENDBRANCH  18  19
BRANCH  18  22
ATOM     22  CB  SER A   1      16.264   7.072 -10.228  1.00  0.00     0.184 C 
BRANCH  22  23
ATOM     23  OG  SER A   1      15.921   5.720 -10.088  1.00  0.00    -0.394 OA
ATOM     24  H   UNL     1      15.839   5.349 -11.005  1.00  0.00     0.210 HD
ENDBRANCH  22  23
ENDBRANCH  18  22
ENDBRANCH  15  18
ENDBRANCH  13  14
BRANCH  13  25
ATOM     25  CB  ASN A   2      14.823  12.324  -8.132  1.00  0.00     0.134 C 
BRANCH  25  26
ATOM     26  CG  ASN A   2      13.356  12.038  -7.980  1.00  0.00     0.220 C 
ATOM     27  ND2 ASN A   2      12.398  12.743  -8.770  1.00  0.00    -0.370 N 
ATOM     28  OD1 ASN A   2      12.969  11.152  -7.171  1.00  0.00    -0.275 OA
ATOM     29  H   UNL     1      12.705  13.471  -9.453  1.00  0.00     0.159 HD
ATOM     30  H   UNL     1      11.378  12.536  -8.672  1.00  0.00     0.159 HD
ENDBRANCH  25  26
ENDBRANCH  13  25
ENDBRANCH  10  13
ENDBRANCH   8   9
BRANCH   8  31
ATOM     31  CB  LEU A   3      19.397  13.545  -8.269  1.00  0.00     0.038 C 
BRANCH  31  32
ATOM     32  CG  LEU A   3      18.497  13.960  -7.075  1.00  0.00    -0.015 C 
ATOM     33  CD1 LEU A   3      18.651  15.462  -6.805  1.00  0.00     0.007 C 
ATOM     34  CD2 LEU A   3      18.806  13.173  -5.796  1.00  0.00     0.007 C 
ENDBRANCH  31  32
ENDBRANCH   8  31
ENDBRANCH   6   8
ENDBRANCH   1   6
BRANCH   2  35
ATOM     35  C   PRO A   4      22.685   9.238  -8.511  1.00  0.00     0.243 C 
ATOM     36  N   ARG A   5      23.791   8.708  -7.790  1.00  0.00    -0.343 N 
ATOM     37  O   PRO A   4      22.871  10.033  -9.472  1.00  0.00    -0.273 OA
ATOM     38  H   UNL     1      23.618   7.982  -7.058  1.00  0.00     0.164 HD
BRANCH  36  39
ATOM     39  CA  ARG A   5      25.163   9.112  -8.068  1.00  0.00     0.171 C 
BRANCH  39  40
ATOM     40  C   ARG A   5      25.888   7.964  -8.684  1.00  0.00     0.243 C 
ATOM     41  N   ASN A   6      25.911   7.866 -10.101  1.00  0.00    -0.341 N 
ATOM     42  O   ARG A   5      26.444   7.087  -7.969  1.00  0.00    -0.273 OA
ATOM     43  H   UNL     1      25.492   8.652 -10.649  1.00  0.00     0.164 HD
BRANCH  41  44
ATOM     44  CA  ASN A   6      26.541   6.753 -10.803  1.00  0.00     0.201 C 
BRANCH  44  45
ATOM     45  C   ASN A   6      27.992   6.645 -10.415  1.00  0.00     0.326 C 
ATOM     46  O   ASN A   6      28.794   7.581 -10.678  1.00  0.00    -0.250 OA
BRANCH  45  47
ATOM     47  OXT ASN A   6      28.450   5.502  -9.767  1.00  0.00    -0.480 OA
ATOM     48  H   UNL     1      29.423   5.412  -9.500  1.00  0.00     0.296 HD
ENDBRANCH  45  47
ENDBRANCH  44  45
BRANCH  44  49
ATOM     49  CB  ASN A   6      26.423   6.948 -12.322  1.00  0.00     0.136 C 
BRANCH  49  50
ATOM     50  CG  ASN A   6      25.008   7.181 -12.771  1.00  0.00     0.220 C 
ATOM     51  ND2 ASN A   6      24.751   8.090 -13.834  1.00  0.00    -0.370 N 
ATOM     52  OD1 ASN A   6      24.050   6.562 -12.237  1.00  0.00    -0.275 OA
ATOM     53  H   UNL     1      23.773   8.259 -14.154  1.00  0.00     0.159 HD
ATOM     54  H   UNL     1      25.530   8.597 -14.309  1.00  0.00     0.159 HD
ENDBRANCH  49  50
ENDBRANCH  44  49
ENDBRANCH  41  44
ENDBRANCH  39  40
BRANCH  39  55
ATOM     55  CB  ARG A   5      25.842   9.595  -6.790  1.00  0.00     0.037 C 
BRANCH  55  56
ATOM     56  CG  ARG A   5      25.160  10.858  -6.270  1.00  0.00     0.024 C 
BRANCH  56  57
ATOM     57  CD  ARG A   5      25.840  11.388  -5.015  1.00  0.00     0.116 C 
BRANCH  57  58
ATOM     58  NE  ARG A   5      25.377  10.686  -3.820  1.00  0.00    -0.357 N 
ATOM     59  CZ  ARG A   5      25.471  11.281  -2.527  1.00  0.00     0.185 C 
ATOM     60  NH2 ARG A   5      26.111  12.545  -2.353  1.00  0.00    -0.370 N 
ATOM     61  H   UNL     1      24.899   9.760  -3.911  1.00  0.00     0.163 HD
ATOM     62  H   UNL     1      26.701  12.980  -3.095  1.00  0.00     0.159 HD
ATOM     63  H   UNL     1      26.087  13.023  -1.425  1.00  0.00     0.159 HD
BRANCH  59  64
ATOM     64  NH1 ARG A   5      24.958  10.671  -1.506  1.00  0.00    -0.270 NA
ATOM     65  H   UNL     1      25.002  11.075  -0.544  1.00  0.00     0.191 HD
ENDBRANCH  59  64
ENDBRANCH  57  58
ENDBRANCH  56  57
ENDBRANCH  55  56
ENDBRANCH  39  55
ENDBRANCH  36  39
ENDBRANCH   2  35
TORSDOF 26
