REMARK SMILES CC(C)C[C@H](NC(=O)[C@H](CCCNC(=N)N)NC(=O)[C@@H](NC(=O)[C@@H](N)CO)C(C)C)C(=O)N[C@@H](CCCNC(=N)N)C(=O)N[C@@H](CC(N)=O)C(=O)O
REMARK SMILES IDX 7 1 8 2 6 3 9 5 17 6 18 7 19 8 20 10 21 11 22 12 23 13 24 15
REMARK SMILES IDX 25 16 26 19 27 20 28 22 29 23 30 24 10 25 11 26 12 27 13 28
REMARK SMILES IDX 14 29 16 30 15 34 5 36 31 37 33 38 32 39 34 41 42 42 44 43
REMARK SMILES IDX 43 44 45 46 50 47 51 48 52 49 46 51 47 52 48 53 49 54 35 57
REMARK SMILES IDX 36 58 37 59 38 60 39 61 41 62 40 66 4 68 2 69 1 70 3 71
REMARK H PARENT 6 4 17 9 21 14 25 17 25 18 27 21 13 31 16 32 16 33 15 35 33 40
REMARK H PARENT 44 45 52 50 48 55 48 56 38 63 41 64 41 65 40 67
ROOT
ATOM      1  C   ARG A   3      20.031  10.082  -6.468  1.00  0.00     0.243 C 
ATOM      2  O   ARG A   3      20.148   9.161  -5.613  1.00  0.00    -0.273 OA
ATOM      3  N   LEU A   4      20.562   9.923  -7.774  1.00  0.00    -0.343 N 
ATOM      4  H   UNL     1      20.403  10.667  -8.492  1.00  0.00     0.164 HD
ENDROOT
BRANCH   1   5
ATOM      5  CA  ARG A   3      19.326  11.355  -6.133  1.00  0.00     0.171 C 
BRANCH   5   6
ATOM      6  N   ARG A   3      18.079  11.048  -5.479  1.00  0.00    -0.343 N 
ATOM      7  C   VAL A   2      16.874  11.750  -5.741  1.00  0.00     0.243 C 
ATOM      8  O   VAL A   2      16.886  12.790  -6.458  1.00  0.00    -0.273 OA
ATOM      9  H   UNL     1      18.154  10.491  -4.603  1.00  0.00     0.164 HD
BRANCH   7  10
ATOM     10  CA  VAL A   2      15.620  11.277  -5.057  1.00  0.00     0.173 C 
BRANCH  10  11
ATOM     11  N   VAL A   2      14.433  11.732  -5.768  1.00  0.00    -0.343 N 
ATOM     12  C   SER A   1      13.914  13.049  -5.637  1.00  0.00     0.239 C 
ATOM     13  O   SER A   1      14.455  13.864  -4.840  1.00  0.00    -0.273 OA
ATOM     14  H   UNL     1      13.814  11.017  -6.200  1.00  0.00     0.164 HD
BRANCH  12  15
ATOM     15  CA  SER A   1      12.656  13.415  -6.385  1.00  0.00     0.167 C 
BRANCH  15  16
ATOM     16  N   SER A   1      12.470  14.868  -6.380  1.00  0.00    -0.318 NA
ATOM     17  H   UNL     1      11.584  15.095  -6.887  1.00  0.00     0.119 HD
ATOM     18  H   UNL     1      12.308  15.177  -5.393  1.00  0.00     0.119 HD
ENDBRANCH  15  16
BRANCH  15  19
ATOM     19  CB  SER A   1      12.696  12.903  -7.846  1.00  0.00     0.184 C 
BRANCH  19  20
ATOM     20  OG  SER A   1      11.439  13.037  -8.449  1.00  0.00    -0.394 OA
ATOM     21  H   UNL     1      10.862  12.324  -8.068  1.00  0.00     0.210 HD
ENDBRANCH  19  20
ENDBRANCH  15  19
ENDBRANCH  12  15
ENDBRANCH  10  11
BRANCH  10  22
ATOM     22  CB  VAL A   2      15.592   9.722  -4.904  1.00  0.00     0.015 C 
ATOM     23  CG1 VAL A   2      14.395   9.260  -4.077  1.00  0.00     0.010 C 
ATOM     24  CG2 VAL A   2      15.659   8.957  -6.241  1.00  0.00     0.010 C 
ENDBRANCH  10  22
ENDBRANCH   7  10
ENDBRANCH   5   6
BRANCH   5  25
ATOM     25  CB  ARG A   3      20.184  12.254  -5.238  1.00  0.00     0.037 C 
BRANCH  25  26
ATOM     26  CG  ARG A   3      20.425  11.710  -3.810  1.00  0.00     0.024 C 
BRANCH  26  27
ATOM     27  CD  ARG A   3      21.822  12.067  -3.300  1.00  0.00     0.116 C 
BRANCH  27  28
ATOM     28  NE  ARG A   3      21.970  13.515  -3.127  1.00  0.00    -0.357 N 
ATOM     29  CZ  ARG A   3      22.674  14.106  -2.024  1.00  0.00     0.185 C 
ATOM     30  NH2 ARG A   3      22.943  15.511  -2.030  1.00  0.00    -0.370 N 
ATOM     31  H   UNL     1      21.716  14.137  -3.926  1.00  0.00     0.163 HD
ATOM     32  H   UNL     1      23.454  15.962  -1.240  1.00  0.00     0.159 HD
ATOM     33  H   UNL     1      22.631  16.105  -2.830  1.00  0.00     0.159 HD
BRANCH  29  34
ATOM     34  NH1 ARG A   3      23.061  13.379  -1.024  1.00  0.00    -0.270 NA
ATOM     35  H   UNL     1      23.574  13.788  -0.211  1.00  0.00     0.191 HD
ENDBRANCH  29  34
ENDBRANCH  27  28
ENDBRANCH  26  27
ENDBRANCH  25  26
ENDBRANCH   5  25
ENDBRANCH   1   5
BRANCH   3  36
ATOM     36  CA  LEU A   4      21.348   8.762  -8.141  1.00  0.00     0.171 C 
BRANCH  36  37
ATOM     37  C   LEU A   4      22.713   9.217  -8.521  1.00  0.00     0.243 C 
ATOM     38  N   ARG A   5      23.822   8.723  -7.784  1.00  0.00    -0.343 N 
ATOM     39  O   LEU A   4      22.877  10.033  -9.469  1.00  0.00    -0.273 OA
ATOM     40  H   UNL     1      23.666   8.034  -7.013  1.00  0.00     0.164 HD
BRANCH  38  41
ATOM     41  CA  ARG A   5      25.185   9.124  -8.071  1.00  0.00     0.171 C 
BRANCH  41  42
ATOM     42  C   ARG A   5      25.899   7.969  -8.685  1.00  0.00     0.243 C 
ATOM     43  N   ASN A   6      25.912   7.865 -10.102  1.00  0.00    -0.341 N 
ATOM     44  O   ARG A   5      26.446   7.088  -7.969  1.00  0.00    -0.273 OA
ATOM     45  H   UNL     1      25.488   8.648 -10.650  1.00  0.00     0.164 HD
BRANCH  43  46
ATOM     46  CA  ASN A   6      26.541   6.751 -10.803  1.00  0.00     0.201 C 
BRANCH  46  47
ATOM     47  C   ASN A   6      27.992   6.642 -10.415  1.00  0.00     0.326 C 
ATOM     48  O   ASN A   6      28.794   7.579 -10.677  1.00  0.00    -0.250 OA
BRANCH  47  49
ATOM     49  OXT ASN A   6      28.450   5.500  -9.767  1.00  0.00    -0.480 OA
ATOM     50  H   UNL     1      29.423   5.409  -9.498  1.00  0.00     0.296 HD
ENDBRANCH  47  49
ENDBRANCH  46  47
BRANCH  46  51
ATOM     51  CB  ASN A   6      26.424   6.947 -12.323  1.00  0.00     0.136 C 
BRANCH  51  52
ATOM     52  CG  ASN A   6      25.010   7.181 -12.773  1.00  0.00     0.220 C 
ATOM     53  ND2 ASN A   6      24.753   8.090 -13.833  1.00  0.00    -0.370 N 
ATOM     54  OD1 ASN A   6      24.053   6.558 -12.243  1.00  0.00    -0.275 OA
ATOM     55  H   UNL     1      25.533   8.600 -14.306  1.00  0.00     0.159 HD
ATOM     56  H   UNL     1      23.775   8.258 -14.157  1.00  0.00     0.159 HD
ENDBRANCH  51  52
ENDBRANCH  46  51
ENDBRANCH  43  46
ENDBRANCH  41  42
BRANCH  41  57
ATOM     57  CB  ARG A   5      25.863   9.607  -6.794  1.00  0.00     0.037 C 
BRANCH  57  58
ATOM     58  CG  ARG A   5      25.175  10.867  -6.266  1.00  0.00     0.024 C 
BRANCH  58  59
ATOM     59  CD  ARG A   5      25.852  11.382  -5.001  1.00  0.00     0.116 C 
BRANCH  59  60
ATOM     60  NE  ARG A   5      25.364  10.681  -3.816  1.00  0.00    -0.357 N 
ATOM     61  CZ  ARG A   5      25.464  11.277  -2.527  1.00  0.00     0.185 C 
ATOM     62  NH2 ARG A   5      26.092  12.549  -2.386  1.00  0.00    -0.370 N 
ATOM     63  H   UNL     1      24.872   9.763  -3.911  1.00  0.00     0.163 HD
ATOM     64  H   UNL     1      26.166  13.023  -1.459  1.00  0.00     0.159 HD
ATOM     65  H   UNL     1      26.166  13.023  -1.459  1.00  0.00     0.159 HD
BRANCH  61  66
ATOM     66  NH1 ARG A   5      24.967  10.669  -1.497  1.00  0.00    -0.270 NA
ATOM     67  H   UNL     1      25.013  11.077  -0.537  1.00  0.00     0.191 HD
ENDBRANCH  61  66
ENDBRANCH  59  60
ENDBRANCH  58  59
ENDBRANCH  57  58
ENDBRANCH  41  57
ENDBRANCH  38  41
ENDBRANCH  36  37
BRANCH  36  68
ATOM     68  CB  LEU A   4      20.655   8.000  -9.272  1.00  0.00     0.038 C 
BRANCH  68  69
ATOM     69  CG  LEU A   4      21.448   6.771  -9.769  1.00  0.00    -0.015 C 
ATOM     70  CD1 LEU A   4      21.762   5.779  -8.639  1.00  0.00     0.007 C 
ATOM     71  CD2 LEU A   4      20.661   6.067 -10.877  1.00  0.00     0.007 C 
ENDBRANCH  68  69
ENDBRANCH  36  68
ENDBRANCH   3  36
TORSDOF 30
