REMARK SMILES CC(C)C[C@H](NC(=O)[C@H](CCCNC(=N)N)NC(=O)CNC(=O)[C@@H](N)CO)C(=O)N[C@@H](CCCNC(=N)N)C(=O)N[C@@H](CC(N)=O)C(=O)O
REMARK SMILES IDX 7 1 8 2 6 3 9 5 17 6 18 7 19 8 20 10 21 11 22 12 23 13 24 15
REMARK SMILES IDX 25 16 26 19 27 20 10 22 11 23 12 24 13 25 14 26 16 27 15 31
REMARK SMILES IDX 5 33 28 34 30 35 29 36 31 38 39 39 41 40 40 41 42 43 47 44
REMARK SMILES IDX 48 45 49 46 43 48 44 49 45 50 46 51 32 54 33 55 34 56 35 57
REMARK SMILES IDX 36 58 38 59 37 63 4 65 2 66 1 67 3 68
REMARK H PARENT 6 4 17 9 21 14 25 17 25 18 27 21 13 28 16 29 16 30 15 32 30 37
REMARK H PARENT 41 42 49 47 45 52 45 53 35 60 38 61 38 62 37 64
ROOT
ATOM      1  C   ARG A   3      20.035  10.074  -6.464  1.00  0.00     0.243 C 
ATOM      2  O   ARG A   3      20.162   9.154  -5.610  1.00  0.00    -0.273 OA
ATOM      3  N   LEU A   4      20.565   9.921  -7.771  1.00  0.00    -0.343 N 
ATOM      4  H   UNL     1      20.403  10.666  -8.487  1.00  0.00     0.164 HD
ENDROOT
BRANCH   1   5
ATOM      5  CA  ARG A   3      19.308  11.330  -6.128  1.00  0.00     0.171 C 
BRANCH   5   6
ATOM      6  N   ARG A   3      18.039  10.997  -5.512  1.00  0.00    -0.343 N 
ATOM      7  C   GLY A   2      16.866  11.761  -5.734  1.00  0.00     0.240 C 
ATOM      8  O   GLY A   2      16.900  12.804  -6.444  1.00  0.00    -0.273 OA
ATOM      9  H   UNL     1      18.011  10.250  -4.780  1.00  0.00     0.164 HD
BRANCH   7  10
ATOM     10  CA  GLY A   2      15.629  11.330  -5.024  1.00  0.00     0.216 C 
BRANCH  10  11
ATOM     11  N   GLY A   2      14.437  11.726  -5.744  1.00  0.00    -0.346 N 
ATOM     12  C   SER A   1      13.906  13.043  -5.632  1.00  0.00     0.239 C 
ATOM     13  O   SER A   1      14.446  13.869  -4.845  1.00  0.00    -0.273 OA
ATOM     14  H   UNL     1      13.854  10.959  -6.146  1.00  0.00     0.164 HD
BRANCH  12  15
ATOM     15  CA  SER A   1      12.650  13.407  -6.384  1.00  0.00     0.167 C 
BRANCH  15  16
ATOM     16  N   SER A   1      12.469  14.861  -6.387  1.00  0.00    -0.318 NA
ATOM     17  H   UNL     1      12.334  15.181  -5.400  1.00  0.00     0.119 HD
ATOM     18  H   UNL     1      11.569  15.087  -6.868  1.00  0.00     0.119 HD
ENDBRANCH  15  16
BRANCH  15  19
ATOM     19  CB  SER A   1      12.698  12.883  -7.836  1.00  0.00     0.184 C 
BRANCH  19  20
ATOM     20  OG  SER A   1      11.445  13.029  -8.449  1.00  0.00    -0.394 OA
ATOM     21  H   UNL     1      11.467  13.879  -8.961  1.00  0.00     0.210 HD
ENDBRANCH  19  20
ENDBRANCH  15  19
ENDBRANCH  12  15
ENDBRANCH  10  11
ENDBRANCH   7  10
ENDBRANCH   5   6
BRANCH   5  22
ATOM     22  CB  ARG A   3      20.145  12.243  -5.224  1.00  0.00     0.037 C 
BRANCH  22  23
ATOM     23  CG  ARG A   3      20.399  11.697  -3.801  1.00  0.00     0.024 C 
BRANCH  23  24
ATOM     24  CD  ARG A   3      21.807  12.052  -3.312  1.00  0.00     0.116 C 
BRANCH  24  25
ATOM     25  NE  ARG A   3      22.016  13.500  -3.289  1.00  0.00    -0.357 N 
ATOM     26  CZ  ARG A   3      21.441  14.361  -2.295  1.00  0.00     0.185 C 
ATOM     27  NH2 ARG A   3      21.673  15.770  -2.361  1.00  0.00    -0.370 N 
ATOM     28  H   UNL     1      22.660  13.916  -3.999  1.00  0.00     0.163 HD
ATOM     29  H   UNL     1      21.268  16.415  -1.646  1.00  0.00     0.159 HD
ATOM     30  H   UNL     1      22.251  16.174  -3.131  1.00  0.00     0.159 HD
BRANCH  26  31
ATOM     31  NH1 ARG A   3      20.723  13.866  -1.335  1.00  0.00    -0.270 NA
ATOM     32  H   UNL     1      20.297  14.472  -0.599  1.00  0.00     0.191 HD
ENDBRANCH  26  31
ENDBRANCH  24  25
ENDBRANCH  23  24
ENDBRANCH  22  23
ENDBRANCH   5  22
ENDBRANCH   1   5
BRANCH   3  33
ATOM     33  CA  LEU A   4      21.349   8.760  -8.142  1.00  0.00     0.171 C 
BRANCH  33  34
ATOM     34  C   LEU A   4      22.714   9.216  -8.522  1.00  0.00     0.243 C 
ATOM     35  N   ARG A   5      23.823   8.721  -7.786  1.00  0.00    -0.343 N 
ATOM     36  O   LEU A   4      22.878  10.033  -9.469  1.00  0.00    -0.273 OA
ATOM     37  H   UNL     1      23.667   8.031  -7.016  1.00  0.00     0.164 HD
BRANCH  35  38
ATOM     38  CA  ARG A   5      25.186   9.122  -8.073  1.00  0.00     0.171 C 
BRANCH  38  39
ATOM     39  C   ARG A   5      25.900   7.968  -8.685  1.00  0.00     0.243 C 
ATOM     40  N   ASN A   6      25.913   7.864 -10.102  1.00  0.00    -0.341 N 
ATOM     41  O   ARG A   5      26.447   7.087  -7.969  1.00  0.00    -0.273 OA
ATOM     42  H   UNL     1      25.488   8.647 -10.651  1.00  0.00     0.164 HD
BRANCH  40  43
ATOM     43  CA  ASN A   6      26.542   6.751 -10.804  1.00  0.00     0.201 C 
BRANCH  43  44
ATOM     44  C   ASN A   6      27.993   6.642 -10.416  1.00  0.00     0.326 C 
ATOM     45  O   ASN A   6      28.794   7.579 -10.677  1.00  0.00    -0.250 OA
BRANCH  44  46
ATOM     46  OXT ASN A   6      28.451   5.499  -9.768  1.00  0.00    -0.480 OA
ATOM     47  H   UNL     1      29.424   5.409  -9.500  1.00  0.00     0.296 HD
ENDBRANCH  44  46
ENDBRANCH  43  44
BRANCH  43  48
ATOM     48  CB  ASN A   6      26.424   6.947 -12.323  1.00  0.00     0.136 C 
BRANCH  48  49
ATOM     49  CG  ASN A   6      25.010   7.180 -12.773  1.00  0.00     0.220 C 
ATOM     50  ND2 ASN A   6      24.753   8.090 -13.833  1.00  0.00    -0.370 N 
ATOM     51  OD1 ASN A   6      24.053   6.558 -12.243  1.00  0.00    -0.275 OA
ATOM     52  H   UNL     1      25.533   8.600 -14.306  1.00  0.00     0.159 HD
ATOM     53  H   UNL     1      23.775   8.258 -14.156  1.00  0.00     0.159 HD
ENDBRANCH  48  49
ENDBRANCH  43  48
ENDBRANCH  40  43
ENDBRANCH  38  39
BRANCH  38  54
ATOM     54  CB  ARG A   5      25.863   9.606  -6.795  1.00  0.00     0.037 C 
BRANCH  54  55
ATOM     55  CG  ARG A   5      25.164  10.859  -6.269  1.00  0.00     0.024 C 
BRANCH  55  56
ATOM     56  CD  ARG A   5      25.838  11.392  -5.013  1.00  0.00     0.116 C 
BRANCH  56  57
ATOM     57  NE  ARG A   5      25.378  10.686  -3.820  1.00  0.00    -0.357 N 
ATOM     58  CZ  ARG A   5      25.468  11.282  -2.526  1.00  0.00     0.185 C 
ATOM     59  NH2 ARG A   5      26.105  12.547  -2.351  1.00  0.00    -0.370 N 
ATOM     60  H   UNL     1      24.896   9.763  -3.912  1.00  0.00     0.163 HD
ATOM     61  H   UNL     1      26.695  12.984  -3.093  1.00  0.00     0.159 HD
ATOM     62  H   UNL     1      26.075  13.026  -1.424  1.00  0.00     0.159 HD
BRANCH  58  63
ATOM     63  NH1 ARG A   5      24.953  10.672  -1.507  1.00  0.00    -0.270 NA
ATOM     64  H   UNL     1      24.993  11.077  -0.545  1.00  0.00     0.191 HD
ENDBRANCH  58  63
ENDBRANCH  56  57
ENDBRANCH  55  56
ENDBRANCH  54  55
ENDBRANCH  38  54
ENDBRANCH  35  38
ENDBRANCH  33  34
BRANCH  33  65
ATOM     65  CB  LEU A   4      20.655   8.000  -9.273  1.00  0.00     0.038 C 
BRANCH  65  66
ATOM     66  CG  LEU A   4      21.448   6.771  -9.769  1.00  0.00    -0.015 C 
ATOM     67  CD1 LEU A   4      21.762   5.779  -8.640  1.00  0.00     0.007 C 
ATOM     68  CD2 LEU A   4      20.661   6.067 -10.878  1.00  0.00     0.007 C 
ENDBRANCH  65  66
ENDBRANCH  33  65
ENDBRANCH   3  33
TORSDOF 29
