REMARK SMILES CC(C)C[C@H](NC(=O)[C@@H]1CCCN1C(=O)[C@H](CC(N)=O)NC(=O)[C@@H](N)CO)C(=O)N[C@@H](CCCNC(=N)N)C(=O)N[C@@H](CC(N)=O)C(=O)O
REMARK SMILES IDX 7 1 8 2 6 3 9 5 13 6 12 7 10 8 11 9 14 10 15 11 16 12 21 13
REMARK SMILES IDX 22 14 23 15 24 17 25 18 26 21 27 22 17 24 18 25 19 26 20 27
REMARK SMILES IDX 5 30 28 31 30 32 29 33 31 35 39 36 41 37 40 38 42 40 47 41
REMARK SMILES IDX 48 42 49 43 43 45 44 46 45 47 46 48 32 51 33 52 34 53 35 54
REMARK SMILES IDX 36 55 38 56 37 60 4 62 2 63 1 64 3 65
REMARK H PARENT 6 4 21 16 25 19 25 20 27 23 19 28 19 29 30 34 41 39 49 44
REMARK H PARENT 45 49 45 50 35 57 38 58 38 59 37 61
ROOT
ATOM      1  C   PRO A   3      20.023  10.098  -6.434  1.00  0.00     0.243 C 
ATOM      2  O   PRO A   3      20.153   9.183  -5.575  1.00  0.00    -0.273 OA
ATOM      3  N   LEU A   4      20.549   9.934  -7.748  1.00  0.00    -0.343 N 
ATOM      4  H   UNL     1      20.372  10.674  -8.465  1.00  0.00     0.164 HD
ENDROOT
BRANCH   1   5
ATOM      5  CA  PRO A   3      19.242  11.339  -6.108  1.00  0.00     0.174 C 
ATOM      6  N   PRO A   3      17.826  11.012  -6.026  1.00  0.00    -0.329 N 
ATOM      7  CD  PRO A   3      17.313  11.088  -4.666  1.00  0.00     0.120 C 
ATOM      8  CB  PRO A   3      19.606  11.903  -4.732  1.00  0.00     0.037 C 
ATOM      9  CG  PRO A   3      18.512  11.418  -3.785  1.00  0.00     0.024 C 
BRANCH   6  10
ATOM     10  C   ASN A   2      17.026  10.710  -7.187  1.00  0.00     0.246 C 
ATOM     11  O   ASN A   2      17.520  10.864  -8.337  1.00  0.00    -0.272 OA
BRANCH  10  12
ATOM     12  CA  ASN A   2      15.623  10.157  -7.069  1.00  0.00     0.180 C 
BRANCH  12  13
ATOM     13  N   ASN A   2      14.735  10.877  -7.987  1.00  0.00    -0.342 N 
ATOM     14  C   SER A   1      14.328  12.232  -7.742  1.00  0.00     0.239 C 
ATOM     15  O   SER A   1      14.721  12.835  -6.705  1.00  0.00    -0.273 OA
ATOM     16  H   UNL     1      14.408  10.408  -8.862  1.00  0.00     0.164 HD
BRANCH  14  17
ATOM     17  CA  SER A   1      13.483  12.962  -8.754  1.00  0.00     0.167 C 
BRANCH  17  18
ATOM     18  N   SER A   1      12.494  13.799  -8.071  1.00  0.00    -0.318 NA
ATOM     19  H   UNL     1      11.837  14.187  -8.787  1.00  0.00     0.119 HD
ATOM     20  H   UNL     1      11.910  13.184  -7.458  1.00  0.00     0.119 HD
ENDBRANCH  17  18
BRANCH  17  21
ATOM     21  CB  SER A   1      14.389  13.819  -9.651  1.00  0.00     0.184 C 
BRANCH  21  22
ATOM     22  OG  SER A   1      13.653  14.372 -10.710  1.00  0.00    -0.394 OA
ATOM     23  H   UNL     1      13.326  15.258 -10.403  1.00  0.00     0.210 HD
ENDBRANCH  21  22
ENDBRANCH  17  21
ENDBRANCH  14  17
ENDBRANCH  12  13
BRANCH  12  24
ATOM     24  CB  ASN A   2      15.613   8.651  -7.396  1.00  0.00     0.134 C 
BRANCH  24  25
ATOM     25  CG  ASN A   2      16.410   7.860  -6.398  1.00  0.00     0.220 C 
ATOM     26  ND2 ASN A   2      15.852   7.532  -5.125  1.00  0.00    -0.370 N 
ATOM     27  OD1 ASN A   2      17.589   7.510  -6.672  1.00  0.00    -0.275 OA
ATOM     28  H   UNL     1      14.883   7.833  -4.876  1.00  0.00     0.159 HD
ATOM     29  H   UNL     1      16.413   6.998  -4.426  1.00  0.00     0.159 HD
ENDBRANCH  24  25
ENDBRANCH  12  24
ENDBRANCH  10  12
ENDBRANCH   6  10
ENDBRANCH   1   5
BRANCH   3  30
ATOM     30  CA  LEU A   4      21.338   8.772  -8.126  1.00  0.00     0.171 C 
BRANCH  30  31
ATOM     31  C   LEU A   4      22.706   9.224  -8.512  1.00  0.00     0.243 C 
ATOM     32  N   ARG A   5      23.818   8.721  -7.784  1.00  0.00    -0.343 N 
ATOM     33  O   LEU A   4      22.870  10.036  -9.464  1.00  0.00    -0.273 OA
ATOM     34  H   UNL     1      23.663   8.031  -7.014  1.00  0.00     0.164 HD
BRANCH  32  35
ATOM     35  CA  ARG A   5      25.182   9.122  -8.073  1.00  0.00     0.171 C 
BRANCH  35  36
ATOM     36  C   ARG A   5      25.897   7.967  -8.685  1.00  0.00     0.243 C 
ATOM     37  N   ASN A   6      25.912   7.864 -10.102  1.00  0.00    -0.341 N 
ATOM     38  O   ARG A   5      26.446   7.087  -7.969  1.00  0.00    -0.273 OA
ATOM     39  H   UNL     1      25.487   8.647 -10.651  1.00  0.00     0.164 HD
BRANCH  37  40
ATOM     40  CA  ASN A   6      26.541   6.751 -10.804  1.00  0.00     0.201 C 
BRANCH  40  41
ATOM     41  C   ASN A   6      27.992   6.642 -10.415  1.00  0.00     0.326 C 
ATOM     42  O   ASN A   6      28.794   7.579 -10.677  1.00  0.00    -0.250 OA
BRANCH  41  43
ATOM     43  OXT ASN A   6      28.450   5.499  -9.767  1.00  0.00    -0.480 OA
ATOM     44  H   UNL     1      29.423   5.410  -9.498  1.00  0.00     0.296 HD
ENDBRANCH  41  43
ENDBRANCH  40  41
BRANCH  40  45
ATOM     45  CB  ASN A   6      26.424   6.946 -12.323  1.00  0.00     0.136 C 
BRANCH  45  46
ATOM     46  CG  ASN A   6      25.010   7.181 -12.773  1.00  0.00     0.220 C 
ATOM     47  ND2 ASN A   6      24.753   8.091 -13.833  1.00  0.00    -0.370 N 
ATOM     48  OD1 ASN A   6      24.052   6.559 -12.243  1.00  0.00    -0.275 OA
ATOM     49  H   UNL     1      23.775   8.258 -14.157  1.00  0.00     0.159 HD
ATOM     50  H   UNL     1      25.533   8.600 -14.306  1.00  0.00     0.159 HD
ENDBRANCH  45  46
ENDBRANCH  40  45
ENDBRANCH  37  40
ENDBRANCH  35  36
BRANCH  35  51
ATOM     51  CB  ARG A   5      25.861   9.605  -6.796  1.00  0.00     0.037 C 
BRANCH  51  52
ATOM     52  CG  ARG A   5      25.166  10.860  -6.270  1.00  0.00     0.024 C 
BRANCH  52  53
ATOM     53  CD  ARG A   5      25.842  11.390  -5.014  1.00  0.00     0.116 C 
BRANCH  53  54
ATOM     54  NE  ARG A   5      25.378  10.687  -3.820  1.00  0.00    -0.357 N 
ATOM     55  CZ  ARG A   5      25.470  11.282  -2.526  1.00  0.00     0.185 C 
ATOM     56  NH2 ARG A   5      26.109  12.546  -2.351  1.00  0.00    -0.370 N 
ATOM     57  H   UNL     1      24.899   9.762  -3.912  1.00  0.00     0.163 HD
ATOM     58  H   UNL     1      26.083  13.022  -1.422  1.00  0.00     0.159 HD
ATOM     59  H   UNL     1      26.700  12.981  -3.092  1.00  0.00     0.159 HD
BRANCH  55  60
ATOM     60  NH1 ARG A   5      24.956  10.671  -1.507  1.00  0.00    -0.270 NA
ATOM     61  H   UNL     1      24.999  11.074  -0.544  1.00  0.00     0.191 HD
ENDBRANCH  55  60
ENDBRANCH  53  54
ENDBRANCH  52  53
ENDBRANCH  51  52
ENDBRANCH  35  51
ENDBRANCH  32  35
ENDBRANCH  30  31
BRANCH  30  62
ATOM     62  CB  LEU A   4      20.647   8.006  -9.260  1.00  0.00     0.038 C 
BRANCH  62  63
ATOM     63  CG  LEU A   4      21.444   6.779  -9.762  1.00  0.00    -0.015 C 
ATOM     64  CD1 LEU A   4      21.760   5.784  -8.636  1.00  0.00     0.007 C 
ATOM     65  CD2 LEU A   4      20.660   6.075 -10.874  1.00  0.00     0.007 C 
ENDBRANCH  62  63
ENDBRANCH  30  62
ENDBRANCH   3  30
TORSDOF 26
