REMARK SMILES CC(C)C[C@H](NC(=O)[C@H](CCCNC(=N)N)NC(=O)[C@H](Cc1ccccc1)NC(=O)[C@@H](N)CO)C(=O)N[C@@H](Cc1c[nH]cn1)C(=O)N[C@@H](CC(N)=O)C(=O)O
REMARK SMILES IDX 7 1 8 2 6 3 9 5 17 6 18 7 19 8 20 10 28 11 29 12 30 13 31 15
REMARK SMILES IDX 32 16 33 19 34 20 21 22 22 23 23 24 27 25 24 26 26 27 25 28
REMARK SMILES IDX 10 29 11 30 12 31 13 32 14 33 16 34 15 38 5 40 35 41 37 42
REMARK SMILES IDX 36 43 38 45 45 46 47 47 46 48 48 50 53 51 54 52 55 53 49 55
REMARK SMILES IDX 50 56 51 57 52 58 39 61 40 62 44 63 41 64 43 65 42 66 4 68
REMARK SMILES IDX 2 69 1 70 3 71
REMARK H PARENT 6 4 17 9 28 14 32 17 32 18 34 21 13 35 16 36 16 37 15 39 37 44
REMARK H PARENT 47 49 55 54 51 59 51 60 42 67
ROOT
ATOM      1  C   ARG A   3      20.036  10.083  -6.472  1.00  0.00     0.243 C 
ATOM      2  O   ARG A   3      20.148   9.161  -5.617  1.00  0.00    -0.273 OA
ATOM      3  N   LEU A   4      20.565   9.922  -7.777  1.00  0.00    -0.343 N 
ATOM      4  H   UNL     1      20.406  10.665  -8.496  1.00  0.00     0.164 HD
ENDROOT
BRANCH   1   5
ATOM      5  CA  ARG A   3      19.336  11.357  -6.140  1.00  0.00     0.171 C 
BRANCH   5   6
ATOM      6  N   ARG A   3      18.086  11.048  -5.498  1.00  0.00    -0.343 N 
ATOM      7  C   PHE A   2      16.884  11.750  -5.772  1.00  0.00     0.243 C 
ATOM      8  O   PHE A   2      16.901  12.792  -6.483  1.00  0.00    -0.273 OA
ATOM      9  H   UNL     1      18.162  10.512  -4.609  1.00  0.00     0.164 HD
BRANCH   7  10
ATOM     10  CA  PHE A   2      15.649  11.313  -5.060  1.00  0.00     0.175 C 
BRANCH  10  11
ATOM     11  N   PHE A   2      14.452  11.740  -5.770  1.00  0.00    -0.343 N 
ATOM     12  C   SER A   1      13.913  13.050  -5.636  1.00  0.00     0.239 C 
ATOM     13  O   SER A   1      14.448  13.869  -4.839  1.00  0.00    -0.273 OA
ATOM     14  H   UNL     1      13.862  11.000  -6.210  1.00  0.00     0.164 HD
BRANCH  12  15
ATOM     15  CA  SER A   1      12.653  13.412  -6.385  1.00  0.00     0.167 C 
BRANCH  15  16
ATOM     16  N   SER A   1      12.468  14.865  -6.382  1.00  0.00    -0.318 NA
ATOM     17  H   UNL     1      12.336  15.180  -5.393  1.00  0.00     0.119 HD
ATOM     18  H   UNL     1      11.564  15.089  -6.858  1.00  0.00     0.119 HD
ENDBRANCH  15  16
BRANCH  15  19
ATOM     19  CB  SER A   1      12.696  12.895  -7.842  1.00  0.00     0.184 C 
BRANCH  19  20
ATOM     20  OG  SER A   1      11.439  13.036  -8.447  1.00  0.00    -0.394 OA
ATOM     21  H   UNL     1      11.453  13.890  -8.953  1.00  0.00     0.210 HD
ENDBRANCH  19  20
ENDBRANCH  15  19
ENDBRANCH  12  15
ENDBRANCH  10  11
BRANCH  10  22
ATOM     22  CB  PHE A   2      15.612   9.774  -4.891  1.00  0.00     0.070 C 
BRANCH  22  23
ATOM     23  CG  PHE A   2      14.443   9.289  -4.090  1.00  0.00    -0.045 A 
ATOM     24  CD1 PHE A   2      13.903  10.046  -3.033  1.00  0.00     0.004 A 
ATOM     25  CD2 PHE A   2      13.968   7.989  -4.310  1.00  0.00     0.004 A 
ATOM     26  CE1 PHE A   2      12.869   9.535  -2.260  1.00  0.00     0.000 A 
ATOM     27  CE2 PHE A   2      12.939   7.477  -3.521  1.00  0.00     0.000 A 
ATOM     28  CZ  PHE A   2      12.386   8.252  -2.502  1.00  0.00     0.000 A 
ENDBRANCH  22  23
ENDBRANCH  10  22
ENDBRANCH   7  10
ENDBRANCH   5   6
BRANCH   5  29
ATOM     29  CB  ARG A   3      20.188  12.250  -5.234  1.00  0.00     0.037 C 
BRANCH  29  30
ATOM     30  CG  ARG A   3      20.418  11.695  -3.809  1.00  0.00     0.024 C 
BRANCH  30  31
ATOM     31  CD  ARG A   3      21.797  12.087  -3.283  1.00  0.00     0.116 C 
BRANCH  31  32
ATOM     32  NE  ARG A   3      21.936  13.543  -3.204  1.00  0.00    -0.357 N 
ATOM     33  CZ  ARG A   3      21.290  14.379  -2.225  1.00  0.00     0.185 C 
ATOM     34  NH2 ARG A   3      21.379  15.798  -2.353  1.00  0.00    -0.370 N 
ATOM     35  H   UNL     1      22.533  14.010  -3.923  1.00  0.00     0.163 HD
ATOM     36  H   UNL     1      21.897  16.228  -3.151  1.00  0.00     0.159 HD
ATOM     37  H   UNL     1      20.924  16.424  -1.651  1.00  0.00     0.159 HD
BRANCH  33  38
ATOM     38  NH1 ARG A   3      20.641  13.878  -1.220  1.00  0.00    -0.270 NA
ATOM     39  H   UNL     1      20.538  12.856  -1.046  1.00  0.00     0.191 HD
ENDBRANCH  33  38
ENDBRANCH  31  32
ENDBRANCH  30  31
ENDBRANCH  29  30
ENDBRANCH   5  29
ENDBRANCH   1   5
BRANCH   3  40
ATOM     40  CA  LEU A   4      21.349   8.760  -8.142  1.00  0.00     0.171 C 
BRANCH  40  41
ATOM     41  C   LEU A   4      22.714   9.217  -8.521  1.00  0.00     0.243 C 
ATOM     42  N   HIS A   5      23.822   8.736  -7.774  1.00  0.00    -0.342 N 
ATOM     43  O   LEU A   4      22.878  10.030  -9.472  1.00  0.00    -0.273 OA
ATOM     44  H   UNL     1      23.667   8.052  -6.999  1.00  0.00     0.164 HD
BRANCH  42  45
ATOM     45  CA  HIS A   5      25.184   9.135  -8.068  1.00  0.00     0.177 C 
BRANCH  45  46
ATOM     46  C   HIS A   5      25.898   7.976  -8.681  1.00  0.00     0.243 C 
ATOM     47  N   ASN A   6      25.911   7.869 -10.099  1.00  0.00    -0.340 N 
ATOM     48  O   HIS A   5      26.444   7.094  -7.964  1.00  0.00    -0.273 OA
ATOM     49  H   UNL     1      25.486   8.650 -10.648  1.00  0.00     0.164 HD
BRANCH  47  50
ATOM     50  CA  ASN A   6      26.540   6.754 -10.800  1.00  0.00     0.201 C 
BRANCH  50  51
ATOM     51  C   ASN A   6      27.991   6.644 -10.412  1.00  0.00     0.326 C 
ATOM     52  O   ASN A   6      28.794   7.579 -10.677  1.00  0.00    -0.250 OA
BRANCH  51  53
ATOM     53  OXT ASN A   6      28.448   5.502  -9.762  1.00  0.00    -0.480 OA
ATOM     54  H   UNL     1      29.420   5.411  -9.493  1.00  0.00     0.296 HD
ENDBRANCH  51  53
ENDBRANCH  50  51
BRANCH  50  55
ATOM     55  CB  ASN A   6      26.423   6.948 -12.320  1.00  0.00     0.136 C 
BRANCH  55  56
ATOM     56  CG  ASN A   6      25.010   7.181 -12.772  1.00  0.00     0.220 C 
ATOM     57  ND2 ASN A   6      24.754   8.090 -13.833  1.00  0.00    -0.370 N 
ATOM     58  OD1 ASN A   6      24.052   6.558 -12.243  1.00  0.00    -0.275 OA
ATOM     59  H   UNL     1      23.775   8.257 -14.157  1.00  0.00     0.159 HD
ATOM     60  H   UNL     1      25.533   8.600 -14.305  1.00  0.00     0.159 HD
ENDBRANCH  55  56
ENDBRANCH  50  55
ENDBRANCH  47  50
ENDBRANCH  45  46
BRANCH  45  61
ATOM     61  CB  HIS A   5      25.865   9.630  -6.792  1.00  0.00     0.093 C 
BRANCH  61  62
ATOM     62  CG  HIS A   5      25.207  10.861  -6.233  1.00  0.00     0.061 A 
ATOM     63  ND1 HIS A   5      24.469  11.736  -6.949  1.00  0.00    -0.242 NA
ATOM     64  CD2 HIS A   5      25.472  11.391  -4.989  1.00  0.00     0.107 A 
ATOM     65  CE1 HIS A   5      24.274  12.769  -6.104  1.00  0.00     0.196 A 
ATOM     66  NE2 HIS A   5      24.880  12.591  -4.915  1.00  0.00    -0.351 N 
ATOM     67  H   UNL     1      24.903  13.256  -4.111  1.00  0.00     0.167 HD
ENDBRANCH  61  62
ENDBRANCH  45  61
ENDBRANCH  42  45
ENDBRANCH  40  41
BRANCH  40  68
ATOM     68  CB  LEU A   4      20.656   7.999  -9.274  1.00  0.00     0.038 C 
BRANCH  68  69
ATOM     69  CG  LEU A   4      21.449   6.770  -9.770  1.00  0.00    -0.015 C 
ATOM     70  CD1 LEU A   4      21.764   5.779  -8.639  1.00  0.00     0.007 C 
ATOM     71  CD2 LEU A   4      20.662   6.066 -10.877  1.00  0.00     0.007 C 
ENDBRANCH  68  69
ENDBRANCH  40  68
ENDBRANCH   3  40
TORSDOF 28
