REMARK SMILES CC(C)C[C@H](NC(=O)[C@@H](NC(=O)[C@H](C)NC(=O)[C@@H](N)CO)[C@@H](C)O)C(=O)N[C@@H](CCCNC(=N)N)C(=O)N[C@@H](CC(N)=O)C(=O)O
REMARK SMILES IDX 7 1 8 2 6 3 9 5 10 6 11 7 12 8 13 10 14 11 15 12 16 13 17 14
REMARK SMILES IDX 18 16 19 17 20 20 21 21 22 23 23 24 24 25 5 27 25 28 27 29
REMARK SMILES IDX 26 30 28 32 36 33 38 34 37 35 39 37 44 38 45 39 46 40 40 42
REMARK SMILES IDX 41 43 42 44 43 45 29 48 30 49 31 50 32 51 33 52 35 53 34 57
REMARK SMILES IDX 4 59 2 60 1 61 3 62
REMARK H PARENT 6 4 10 9 15 15 19 18 19 19 21 22 24 26 27 31 38 36 46 41 42 46
REMARK H PARENT 42 47 32 54 35 55 35 56 34 58
ROOT
ATOM      1  C   THR A   3      20.047  10.086  -6.458  1.00  0.00     0.245 C 
ATOM      2  O   THR A   3      20.171   9.171  -5.598  1.00  0.00    -0.273 OA
ATOM      3  N   LEU A   4      20.563   9.921  -7.769  1.00  0.00    -0.342 N 
ATOM      4  H   UNL     1      20.396  10.662  -8.489  1.00  0.00     0.164 HD
ENDROOT
BRANCH   1   5
ATOM      5  CA  THR A   3      19.328  11.350  -6.124  1.00  0.00     0.200 C 
BRANCH   5   6
ATOM      6  N   THR A   3      18.063  11.009  -5.511  1.00  0.00    -0.340 N 
ATOM      7  C   ALA A   2      16.871  11.745  -5.737  1.00  0.00     0.243 C 
ATOM      8  O   ALA A   2      16.894  12.792  -6.444  1.00  0.00    -0.273 OA
ATOM      9  H   UNL     1      18.088  10.311  -4.737  1.00  0.00     0.164 HD
BRANCH   7  10
ATOM     10  CA  ALA A   2      15.616  11.294  -5.040  1.00  0.00     0.168 C 
ATOM     11  CB  ALA A   2      15.563   9.762  -4.902  1.00  0.00     0.041 C 
BRANCH  10  12
ATOM     12  N   ALA A   2      14.439  11.733  -5.768  1.00  0.00    -0.343 N 
ATOM     13  C   SER A   1      13.913  13.048  -5.636  1.00  0.00     0.239 C 
ATOM     14  O   SER A   1      14.449  13.863  -4.835  1.00  0.00    -0.273 OA
ATOM     15  H   UNL     1      13.851  11.002  -6.224  1.00  0.00     0.164 HD
BRANCH  13  16
ATOM     16  CA  SER A   1      12.659  13.414  -6.389  1.00  0.00     0.167 C 
BRANCH  16  17
ATOM     17  N   SER A   1      12.455  14.864  -6.398  1.00  0.00    -0.318 NA
ATOM     18  H   UNL     1      13.317  15.340  -6.753  1.00  0.00     0.119 HD
ATOM     19  H   UNL     1      12.285  15.191  -5.419  1.00  0.00     0.119 HD
ENDBRANCH  16  17
BRANCH  16  20
ATOM     20  CB  SER A   1      12.689  12.893  -7.845  1.00  0.00     0.184 C 
BRANCH  20  21
ATOM     21  OG  SER A   1      11.435  13.054  -8.447  1.00  0.00    -0.394 OA
ATOM     22  H   UNL     1      10.842  12.356  -8.065  1.00  0.00     0.210 HD
ENDBRANCH  20  21
ENDBRANCH  16  20
ENDBRANCH  13  16
ENDBRANCH  10  12
ENDBRANCH   7  10
ENDBRANCH   5   6
BRANCH   5  23
ATOM     23  CB  THR A   3      20.149  12.266  -5.199  1.00  0.00     0.143 C 
ATOM     24  CG2 THR A   3      20.420  11.671  -3.806  1.00  0.00     0.041 C 
BRANCH  23  25
ATOM     25  OG1 THR A   3      21.368  12.580  -5.823  1.00  0.00    -0.391 OA
ATOM     26  H   UNL     1      21.723  13.392  -5.374  1.00  0.00     0.211 HD
ENDBRANCH  23  25
ENDBRANCH   5  23
ENDBRANCH   1   5
BRANCH   3  27
ATOM     27  CA  LEU A   4      21.348   8.760  -8.139  1.00  0.00     0.171 C 
BRANCH  27  28
ATOM     28  C   LEU A   4      22.713   9.217  -8.520  1.00  0.00     0.243 C 
ATOM     29  N   ARG A   5      23.822   8.720  -7.785  1.00  0.00    -0.343 N 
ATOM     30  O   LEU A   4      22.877  10.033  -9.468  1.00  0.00    -0.273 OA
ATOM     31  H   UNL     1      23.667   8.030  -7.015  1.00  0.00     0.164 HD
BRANCH  29  32
ATOM     32  CA  ARG A   5      25.185   9.122  -8.073  1.00  0.00     0.171 C 
BRANCH  32  33
ATOM     33  C   ARG A   5      25.900   7.968  -8.685  1.00  0.00     0.243 C 
ATOM     34  N   ASN A   6      25.913   7.864 -10.102  1.00  0.00    -0.341 N 
ATOM     35  O   ARG A   5      26.447   7.087  -7.969  1.00  0.00    -0.273 OA
ATOM     36  H   UNL     1      25.489   8.647 -10.651  1.00  0.00     0.164 HD
BRANCH  34  37
ATOM     37  CA  ASN A   6      26.542   6.751 -10.804  1.00  0.00     0.201 C 
BRANCH  37  38
ATOM     38  C   ASN A   6      27.993   6.642 -10.416  1.00  0.00     0.326 C 
ATOM     39  O   ASN A   6      28.794   7.579 -10.677  1.00  0.00    -0.250 OA
BRANCH  38  40
ATOM     40  OXT ASN A   6      28.451   5.499  -9.768  1.00  0.00    -0.480 OA
ATOM     41  H   UNL     1      29.424   5.409  -9.500  1.00  0.00     0.296 HD
ENDBRANCH  38  40
ENDBRANCH  37  38
BRANCH  37  42
ATOM     42  CB  ASN A   6      26.424   6.947 -12.323  1.00  0.00     0.136 C 
BRANCH  42  43
ATOM     43  CG  ASN A   6      25.010   7.180 -12.773  1.00  0.00     0.220 C 
ATOM     44  ND2 ASN A   6      24.753   8.090 -13.833  1.00  0.00    -0.370 N 
ATOM     45  OD1 ASN A   6      24.053   6.558 -12.243  1.00  0.00    -0.275 OA
ATOM     46  H   UNL     1      23.775   8.258 -14.156  1.00  0.00     0.159 HD
ATOM     47  H   UNL     1      25.533   8.600 -14.306  1.00  0.00     0.159 HD
ENDBRANCH  42  43
ENDBRANCH  37  42
ENDBRANCH  34  37
ENDBRANCH  32  33
BRANCH  32  48
ATOM     48  CB  ARG A   5      25.863   9.605  -6.795  1.00  0.00     0.037 C 
BRANCH  48  49
ATOM     49  CG  ARG A   5      25.165  10.860  -6.270  1.00  0.00     0.024 C 
BRANCH  49  50
ATOM     50  CD  ARG A   5      25.840  11.391  -5.014  1.00  0.00     0.116 C 
BRANCH  50  51
ATOM     51  NE  ARG A   5      25.377  10.687  -3.820  1.00  0.00    -0.357 N 
ATOM     52  CZ  ARG A   5      25.469  11.282  -2.526  1.00  0.00     0.185 C 
ATOM     53  NH2 ARG A   5      26.109  12.546  -2.351  1.00  0.00    -0.370 N 
ATOM     54  H   UNL     1      24.896   9.763  -3.912  1.00  0.00     0.163 HD
ATOM     55  H   UNL     1      26.083  13.022  -1.422  1.00  0.00     0.159 HD
ATOM     56  H   UNL     1      26.698  12.981  -3.093  1.00  0.00     0.159 HD
BRANCH  52  57
ATOM     57  NH1 ARG A   5      24.956  10.671  -1.507  1.00  0.00    -0.270 NA
ATOM     58  H   UNL     1      24.998  11.075  -0.544  1.00  0.00     0.191 HD
ENDBRANCH  52  57
ENDBRANCH  50  51
ENDBRANCH  49  50
ENDBRANCH  48  49
ENDBRANCH  32  48
ENDBRANCH  29  32
ENDBRANCH  27  28
BRANCH  27  59
ATOM     59  CB  LEU A   4      20.655   8.000  -9.272  1.00  0.00     0.038 C 
BRANCH  59  60
ATOM     60  CG  LEU A   4      21.448   6.771  -9.769  1.00  0.00    -0.015 C 
ATOM     61  CD1 LEU A   4      21.762   5.779  -8.639  1.00  0.00     0.007 C 
ATOM     62  CD2 LEU A   4      20.661   6.068 -10.877  1.00  0.00     0.007 C 
ENDBRANCH  59  60
ENDBRANCH  27  59
ENDBRANCH   3  27
TORSDOF 26
