REMARK SMILES CC[C@H](C)[C@H](NC(=O)[C@@H](N)CO)C(=O)N[C@@H](CC(C)C)C(=O)N[C@@H](CO)C(=O)N[C@@H](CCCNC(=N)N)C(=O)N[C@@H](CC(N)=O)C(=O)O
REMARK SMILES IDX 21 1 22 2 23 3 16 5 15 6 13 7 14 8 5 10 6 11 7 12 8 13 9 15
REMARK SMILES IDX 10 16 11 19 12 20 3 22 4 23 2 24 1 25 17 26 18 27 19 28
REMARK SMILES IDX 20 29 24 30 27 31 29 32 28 33 30 35 38 36 40 37 39 38 41 40
REMARK SMILES IDX 46 41 47 42 48 43 42 45 43 46 44 47 45 48 31 51 32 52 33 53
REMARK SMILES IDX 34 54 35 55 37 56 36 60 25 62 26 63
REMARK H PARENT 23 4 15 9 6 14 10 17 10 18 12 21 29 34 40 39 48 44 44 49 44 50
REMARK H PARENT 34 57 37 58 37 59 36 61 26 64
ROOT
ATOM      1  C   LEU A   3       1.032   1.453  -0.043  1.00  0.00     0.243 C 
ATOM      2  O   LEU A   3       0.759   1.929  -1.179  1.00  0.00    -0.273 OA
ATOM      3  N   SER A   4       0.373   0.268   0.426  1.00  0.00    -0.340 N 
ATOM      4  H   UNL     1       0.674  -0.130   1.343  1.00  0.00     0.164 HD
ENDROOT
BRANCH   1   5
ATOM      5  CA  LEU A   3       2.053   2.140   0.828  1.00  0.00     0.171 C 
BRANCH   5   6
ATOM      6  N   LEU A   3       3.313   2.255   0.092  1.00  0.00    -0.343 N 
ATOM      7  C   ILE A   2       4.213   1.145  -0.049  1.00  0.00     0.243 C 
ATOM      8  O   ILE A   2       3.954   0.043   0.512  1.00  0.00    -0.273 OA
ATOM      9  H   UNL     1       3.573   3.168  -0.349  1.00  0.00     0.164 HD
BRANCH   7  10
ATOM     10  CA  ILE A   2       5.452   1.285  -0.897  1.00  0.00     0.174 C 
BRANCH  10  11
ATOM     11  N   ILE A   2       6.471   0.313  -0.479  1.00  0.00    -0.343 N 
ATOM     12  C   SER A   1       7.510   0.636   0.457  1.00  0.00     0.239 C 
ATOM     13  O   SER A   1       7.601   1.802   0.930  1.00  0.00    -0.273 OA
ATOM     14  H   UNL     1       6.353  -0.688  -0.754  1.00  0.00     0.164 HD
BRANCH  12  15
ATOM     15  CA  SER A   1       8.490  -0.424   0.901  1.00  0.00     0.167 C 
BRANCH  15  16
ATOM     16  N   SER A   1       9.864  -0.017   0.601  1.00  0.00    -0.318 NA
ATOM     17  H   UNL     1      10.065   0.905   1.053  1.00  0.00     0.119 HD
ATOM     18  H   UNL     1       9.960   0.115  -0.432  1.00  0.00     0.119 HD
ENDBRANCH  15  16
BRANCH  15  19
ATOM     19  CB  SER A   1       8.344  -0.706   2.403  1.00  0.00     0.184 C 
BRANCH  19  20
ATOM     20  OG  SER A   1       7.050  -1.154   2.704  1.00  0.00    -0.394 OA
ATOM     21  H   UNL     1       6.994  -2.096   2.400  1.00  0.00     0.210 HD
ENDBRANCH  19  20
ENDBRANCH  15  19
ENDBRANCH  12  15
ENDBRANCH  10  11
BRANCH  10  22
ATOM     22  CB  ILE A   2       5.131   1.159  -2.415  1.00  0.00     0.018 C 
ATOM     23  CG1 ILE A   2       6.373   1.524  -3.248  1.00  0.00     0.010 C 
BRANCH  22  24
ATOM     24  CG2 ILE A   2       4.592  -0.244  -2.807  1.00  0.00     0.002 C 
ATOM     25  CD1 ILE A   2       3.818  -0.230  -4.127  1.00  0.00     0.004 C 
ENDBRANCH  22  24
ENDBRANCH  10  22
ENDBRANCH   7  10
ENDBRANCH   5   6
BRANCH   5  26
ATOM     26  CB  LEU A   3       1.568   3.536   1.278  1.00  0.00     0.038 C 
BRANCH  26  27
ATOM     27  CG  LEU A   3       0.272   3.518   2.122  1.00  0.00    -0.015 C 
ATOM     28  CD1 LEU A   3      -0.168   4.957   2.430  1.00  0.00     0.007 C 
ATOM     29  CD2 LEU A   3       0.439   2.728   3.430  1.00  0.00     0.007 C 
ENDBRANCH  26  27
ENDBRANCH   5  26
ENDBRANCH   1   5
BRANCH   3  30
ATOM     30  CA  SER A   4      -0.537  -0.527  -0.404  1.00  0.00     0.197 C 
BRANCH  30  31
ATOM     31  C   SER A   4      -1.781  -0.884   0.376  1.00  0.00     0.245 C 
ATOM     32  N   ARG A   5      -2.988  -1.237  -0.319  1.00  0.00    -0.342 N 
ATOM     33  O   SER A   4      -1.745  -0.920   1.636  1.00  0.00    -0.273 OA
ATOM     34  H   UNL     1      -2.941  -1.327  -1.359  1.00  0.00     0.164 HD
BRANCH  32  35
ATOM     35  CA  ARG A   5      -4.242  -1.536   0.389  1.00  0.00     0.171 C 
BRANCH  35  36
ATOM     36  C   ARG A   5      -5.187  -2.357  -0.457  1.00  0.00     0.243 C 
ATOM     37  N   ASN A   6      -6.076  -3.294   0.171  1.00  0.00    -0.341 N 
ATOM     38  O   ARG A   5      -5.237  -2.176  -1.702  1.00  0.00    -0.273 OA
ATOM     39  H   UNL     1      -6.109  -3.314   1.217  1.00  0.00     0.164 HD
BRANCH  37  40
ATOM     40  CA  ASN A   6      -6.976  -4.181  -0.578  1.00  0.00     0.201 C 
BRANCH  40  41
ATOM     41  C   ASN A   6      -8.410  -3.754  -0.409  1.00  0.00     0.326 C 
ATOM     42  O   ASN A   6      -8.768  -3.070   0.590  1.00  0.00    -0.250 OA
BRANCH  41  43
ATOM     43  OXT ASN A   6      -9.359  -4.156  -1.344  1.00  0.00    -0.480 OA
ATOM     44  H   UNL     1     -10.333  -3.897  -1.246  1.00  0.00     0.296 HD
ENDBRANCH  41  43
ENDBRANCH  40  41
BRANCH  40  45
ATOM     45  CB  ASN A   6      -6.767  -5.650  -0.159  1.00  0.00     0.136 C 
BRANCH  45  46
ATOM     46  CG  ASN A   6      -7.104  -5.912   1.282  1.00  0.00     0.220 C 
ATOM     47  ND2 ASN A   6      -8.430  -6.287   1.656  1.00  0.00    -0.370 N 
ATOM     48  OD1 ASN A   6      -6.219  -5.785   2.169  1.00  0.00    -0.275 OA
ATOM     49  H   UNL     1      -9.178  -6.384   0.933  1.00  0.00     0.159 HD
ATOM     50  H   UNL     1      -8.667  -6.449   2.659  1.00  0.00     0.159 HD
ENDBRANCH  45  46
ENDBRANCH  40  45
ENDBRANCH  37  40
ENDBRANCH  35  36
BRANCH  35  51
ATOM     51  CB  ARG A   5      -4.912  -0.249   0.928  1.00  0.00     0.037 C 
BRANCH  51  52
ATOM     52  CG  ARG A   5      -5.626   0.648  -0.111  1.00  0.00     0.024 C 
BRANCH  52  53
ATOM     53  CD  ARG A   5      -4.689   1.359  -1.098  1.00  0.00     0.116 C 
BRANCH  53  54
ATOM     54  NE  ARG A   5      -3.797   2.303  -0.424  1.00  0.00    -0.357 N 
ATOM     55  CZ  ARG A   5      -2.757   2.994  -1.129  1.00  0.00     0.185 C 
ATOM     56  NH2 ARG A   5      -2.077   4.079  -0.496  1.00  0.00    -0.370 N 
ATOM     57  H   UNL     1      -3.972   2.555   0.578  1.00  0.00     0.163 HD
ATOM     58  H   UNL     1      -1.280   4.564  -0.970  1.00  0.00     0.159 HD
ATOM     59  H   UNL     1      -2.360   4.395   0.457  1.00  0.00     0.159 HD
BRANCH  55  60
ATOM     60  NH1 ARG A   5      -2.432   2.636  -2.334  1.00  0.00    -0.270 NA
ATOM     61  H   UNL     1      -1.673   3.123  -2.864  1.00  0.00     0.191 HD
ENDBRANCH  55  60
ENDBRANCH  53  54
ENDBRANCH  52  53
ENDBRANCH  51  52
ENDBRANCH  35  51
ENDBRANCH  32  35
ENDBRANCH  30  31
BRANCH  30  62
ATOM     62  CB  SER A   4       0.193  -1.790  -0.882  1.00  0.00     0.191 C 
BRANCH  62  63
ATOM     63  OG  SER A   4      -0.601  -2.530  -1.770  1.00  0.00    -0.394 OA
ATOM     64  H   UNL     1      -0.597  -2.041  -2.633  1.00  0.00     0.210 HD
ENDBRANCH  62  63
ENDBRANCH  30  62
ENDBRANCH   3  30
TORSDOF 28
