REMARK SMILES CC(C)C[C@H](NC(=O)[C@H](CO)NC(=O)[C@H](Cc1ccccc1)NC(=O)[C@@H](N)CO)C(=O)N[C@@H](CCCNC(=N)N)C(=O)N[C@@H](CCCCN)C(=O)O
REMARK SMILES IDX 30 1 31 2 32 3 5 5 6 6 7 7 8 8 9 10 12 11 13 12 14 13 15 15
REMARK SMILES IDX 23 16 24 17 25 18 26 20 27 21 28 24 29 25 16 27 17 28 18 29
REMARK SMILES IDX 22 30 19 31 21 32 20 33 10 34 11 35 4 37 2 38 1 39 3 40
REMARK SMILES IDX 33 41 41 42 43 43 42 44 44 46 50 47 51 48 52 49 45 51 46 52
REMARK SMILES IDX 47 53 48 54 49 55 34 58 35 59 36 60 37 61 38 62 40 63 39 67
REMARK H PARENT 32 4 6 9 12 14 23 19 27 22 27 23 29 26 11 36 43 45 52 50 49 56
REMARK H PARENT 49 57 37 64 40 65 40 66 39 68
ROOT
ATOM      1  C   LEU A   4      22.712   9.215  -8.517  1.00  0.00     0.243 C 
ATOM      2  O   LEU A   4      22.876  10.031  -9.466  1.00  0.00    -0.273 OA
ATOM      3  N   ARG A   5      23.821   8.719  -7.782  1.00  0.00    -0.343 N 
ATOM      4  H   UNL     1      23.665   8.029  -7.012  1.00  0.00     0.164 HD
ENDROOT
BRANCH   1   5
ATOM      5  CA  LEU A   4      21.346   8.759  -8.137  1.00  0.00     0.171 C 
BRANCH   5   6
ATOM      6  N   LEU A   4      20.559   9.920  -7.773  1.00  0.00    -0.342 N 
ATOM      7  C   SER A   3      20.044  10.101  -6.463  1.00  0.00     0.245 C 
ATOM      8  O   SER A   3      20.173   9.200  -5.587  1.00  0.00    -0.273 OA
ATOM      9  H   UNL     1      20.391  10.655  -8.498  1.00  0.00     0.164 HD
BRANCH   7  10
ATOM     10  CA  SER A   3      19.341  11.376  -6.146  1.00  0.00     0.197 C 
BRANCH  10  11
ATOM     11  N   SER A   3      18.094  11.060  -5.496  1.00  0.00    -0.340 N 
ATOM     12  C   PHE A   2      16.886  11.751  -5.775  1.00  0.00     0.243 C 
ATOM     13  O   PHE A   2      16.897  12.790  -6.490  1.00  0.00    -0.273 OA
ATOM     14  H   UNL     1      18.187  10.558  -4.585  1.00  0.00     0.164 HD
BRANCH  12  15
ATOM     15  CA  PHE A   2      15.652  11.314  -5.060  1.00  0.00     0.175 C 
BRANCH  15  16
ATOM     16  N   PHE A   2      14.453  11.739  -5.768  1.00  0.00    -0.343 N 
ATOM     17  C   SER A   1      13.913  13.049  -5.637  1.00  0.00     0.239 C 
ATOM     18  O   SER A   1      14.447  13.869  -4.840  1.00  0.00    -0.273 OA
ATOM     19  H   UNL     1      13.861  10.998  -6.204  1.00  0.00     0.164 HD
BRANCH  17  20
ATOM     20  CA  SER A   1      12.654  13.409  -6.387  1.00  0.00     0.167 C 
BRANCH  20  21
ATOM     21  N   SER A   1      12.467  14.862  -6.384  1.00  0.00    -0.318 NA
ATOM     22  H   UNL     1      12.301  15.172  -5.399  1.00  0.00     0.119 HD
ATOM     23  H   UNL     1      11.583  15.088  -6.895  1.00  0.00     0.119 HD
ENDBRANCH  20  21
BRANCH  20  24
ATOM     24  CB  SER A   1      12.699  12.894  -7.844  1.00  0.00     0.184 C 
BRANCH  24  25
ATOM     25  OG  SER A   1      11.440  13.041  -8.441  1.00  0.00    -0.394 OA
ATOM     26  H   UNL     1      11.550  12.778  -9.392  1.00  0.00     0.210 HD
ENDBRANCH  24  25
ENDBRANCH  20  24
ENDBRANCH  17  20
ENDBRANCH  15  16
BRANCH  15  27
ATOM     27  CB  PHE A   2      15.619   9.775  -4.891  1.00  0.00     0.070 C 
BRANCH  27  28
ATOM     28  CG  PHE A   2      14.449   9.289  -4.088  1.00  0.00    -0.045 A 
ATOM     29  CD1 PHE A   2      13.906  10.046  -3.032  1.00  0.00     0.004 A 
ATOM     30  CD2 PHE A   2      13.972   7.990  -4.310  1.00  0.00     0.004 A 
ATOM     31  CE1 PHE A   2      12.870   9.536  -2.261  1.00  0.00     0.000 A 
ATOM     32  CE2 PHE A   2      12.941   7.478  -3.522  1.00  0.00     0.000 A 
ATOM     33  CZ  PHE A   2      12.387   8.253  -2.503  1.00  0.00     0.000 A 
ENDBRANCH  27  28
ENDBRANCH  15  27
ENDBRANCH  12  15
ENDBRANCH  10  11
BRANCH  10  34
ATOM     34  CB  SER A   3      20.189  12.246  -5.218  1.00  0.00     0.191 C 
BRANCH  34  35
ATOM     35  OG  SER A   3      19.539  13.458  -4.939  1.00  0.00    -0.394 OA
ATOM     36  H   UNL     1      19.626  14.021  -5.753  1.00  0.00     0.210 HD
ENDBRANCH  34  35
ENDBRANCH  10  34
ENDBRANCH   7  10
ENDBRANCH   5   6
BRANCH   5  37
ATOM     37  CB  LEU A   4      20.656   7.998  -9.272  1.00  0.00     0.038 C 
BRANCH  37  38
ATOM     38  CG  LEU A   4      21.451   6.771  -9.771  1.00  0.00    -0.015 C 
ATOM     39  CD1 LEU A   4      21.764   5.779  -8.641  1.00  0.00     0.007 C 
ATOM     40  CD2 LEU A   4      20.662   6.067 -10.878  1.00  0.00     0.007 C 
ENDBRANCH  37  38
ENDBRANCH   5  37
ENDBRANCH   1   5
BRANCH   3  41
ATOM     41  CA  ARG A   5      25.184   9.121  -8.069  1.00  0.00     0.171 C 
BRANCH  41  42
ATOM     42  C   ARG A   5      25.899   7.968  -8.683  1.00  0.00     0.243 C 
ATOM     43  N   LYS A   6      25.932   7.886 -10.100  1.00  0.00    -0.341 N 
ATOM     44  O   ARG A   5      26.439   7.080  -7.971  1.00  0.00    -0.273 OA
ATOM     45  H   UNL     1      25.644   8.739 -10.631  1.00  0.00     0.164 HD
BRANCH  43  46
ATOM     46  CA  LYS A   6      26.536   6.769 -10.816  1.00  0.00     0.192 C 
BRANCH  46  47
ATOM     47  C   LYS A   6      27.986   6.640 -10.429  1.00  0.00     0.326 C 
ATOM     48  O   LYS A   6      28.795   7.573 -10.678  1.00  0.00    -0.250 OA
BRANCH  47  49
ATOM     49  OXT LYS A   6      28.433   5.483  -9.798  1.00  0.00    -0.480 OA
ATOM     50  H   UNL     1      29.405   5.380  -9.531  1.00  0.00     0.296 HD
ENDBRANCH  47  49
ENDBRANCH  46  47
BRANCH  46  51
ATOM     51  CB  LYS A   6      26.420   6.994 -12.334  1.00  0.00     0.037 C 
BRANCH  51  52
ATOM     52  CG  LYS A   6      24.959   7.120 -12.805  1.00  0.00     0.004 C 
BRANCH  52  53
ATOM     53  CD  LYS A   6      24.838   7.468 -14.299  1.00  0.00     0.015 C 
BRANCH  53  54
ATOM     54  CE  LYS A   6      25.253   6.323 -15.238  1.00  0.00     0.077 C 
BRANCH  54  55
ATOM     55  NZ  LYS A   6      26.704   6.274 -15.397  1.00  0.00    -0.330 NA
ATOM     56  H   UNL     1      26.932   5.439 -15.984  1.00  0.00     0.118 HD
ATOM     57  H   UNL     1      27.003   7.113 -15.945  1.00  0.00     0.118 HD
ENDBRANCH  54  55
ENDBRANCH  53  54
ENDBRANCH  52  53
ENDBRANCH  51  52
ENDBRANCH  46  51
ENDBRANCH  43  46
ENDBRANCH  41  42
BRANCH  41  58
ATOM     58  CB  ARG A   5      25.862   9.604  -6.793  1.00  0.00     0.037 C 
BRANCH  58  59
ATOM     59  CG  ARG A   5      25.168  10.861  -6.271  1.00  0.00     0.024 C 
BRANCH  59  60
ATOM     60  CD  ARG A   5      25.842  11.391  -5.014  1.00  0.00     0.116 C 
BRANCH  60  61
ATOM     61  NE  ARG A   5      25.378  10.685  -3.823  1.00  0.00    -0.357 N 
ATOM     62  CZ  ARG A   5      25.469  11.279  -2.527  1.00  0.00     0.185 C 
ATOM     63  NH2 ARG A   5      26.106  12.541  -2.349  1.00  0.00    -0.370 N 
ATOM     64  H   UNL     1      24.904   9.758  -3.921  1.00  0.00     0.163 HD
ATOM     65  H   UNL     1      26.083  13.007  -1.414  1.00  0.00     0.159 HD
ATOM     66  H   UNL     1      26.693  12.983  -3.089  1.00  0.00     0.159 HD
BRANCH  62  67
ATOM     67  NH1 ARG A   5      24.959  10.678  -1.499  1.00  0.00    -0.270 NA
ATOM     68  H   UNL     1      24.478   9.755  -1.583  1.00  0.00     0.191 HD
ENDBRANCH  62  67
ENDBRANCH  60  61
ENDBRANCH  59  60
ENDBRANCH  58  59
ENDBRANCH  41  58
ENDBRANCH   3  41
TORSDOF 31
