REMARK SMILES CC(C)C[C@H](NC(=O)[C@H](CCC(N)=O)NC(=O)[C@H](Cc1ccccc1)NC(=O)[C@@H](N)CO)C(=O)N[C@@H](CCCNC(=N)N)C(=O)N[C@@H](CCCNC(=N)N)C(=O)O
REMARK SMILES IDX 33 1 34 2 35 3 5 5 6 6 7 7 8 8 9 10 15 11 16 12 17 13 18 15
REMARK SMILES IDX 26 16 27 17 28 18 29 20 30 21 31 24 32 25 19 27 20 28 21 29
REMARK SMILES IDX 25 30 22 31 24 32 23 33 10 34 11 35 12 36 13 37 14 38 4 41
REMARK SMILES IDX 2 42 1 43 3 44 36 45 44 46 46 47 45 48 47 50 55 51 56 52
REMARK SMILES IDX 57 53 48 55 49 56 50 57 51 58 52 59 54 60 53 64 37 66 38 67
REMARK SMILES IDX 39 68 40 69 41 70 43 71 42 75
REMARK H PARENT 35 4 6 9 15 14 26 19 30 22 30 23 32 26 13 39 13 40 46 49 57 54
REMARK H PARENT 51 61 54 62 54 63 53 65 40 72 43 73 43 74 42 76
ROOT
ATOM      1  C   LEU A   4       1.729  -0.915  -0.472  1.00  0.00     0.243 C 
ATOM      2  O   LEU A   4       1.863  -0.645   0.752  1.00  0.00    -0.273 OA
ATOM      3  N   ARG A   5       2.811  -1.514  -1.207  1.00  0.00    -0.343 N 
ATOM      4  H   UNL     1       2.711  -1.585  -2.246  1.00  0.00     0.164 HD
ENDROOT
BRANCH   1   5
ATOM      5  CA  LEU A   4       0.450  -0.553  -1.182  1.00  0.00     0.171 C 
BRANCH   5   6
ATOM      6  N   LEU A   4      -0.679  -0.673  -0.257  1.00  0.00    -0.343 N 
ATOM      7  C   GLN A   3      -1.614  -1.763  -0.307  1.00  0.00     0.243 C 
ATOM      8  O   GLN A   3      -1.694  -2.485  -1.338  1.00  0.00    -0.273 OA
ATOM      9  H   UNL     1      -0.742  -0.000   0.541  1.00  0.00     0.164 HD
BRANCH   7  10
ATOM     10  CA  GLN A   3      -2.544  -2.008   0.848  1.00  0.00     0.171 C 
BRANCH  10  11
ATOM     11  N   GLN A   3      -3.887  -1.536   0.506  1.00  0.00    -0.342 N 
ATOM     12  C   PHE A   2      -4.394  -0.272   0.961  1.00  0.00     0.243 C 
ATOM     13  O   PHE A   2      -3.605   0.587   1.443  1.00  0.00    -0.273 OA
ATOM     14  H   UNL     1      -4.488  -2.129  -0.110  1.00  0.00     0.164 HD
BRANCH  12  15
ATOM     15  CA  PHE A   2      -5.867   0.027   0.841  1.00  0.00     0.175 C 
BRANCH  15  16
ATOM     16  N   PHE A   2      -6.316   0.955   1.893  1.00  0.00    -0.343 N 
ATOM     17  C   SER A   1      -5.976   2.352   1.966  1.00  0.00     0.239 C 
ATOM     18  O   SER A   1      -5.195   2.868   1.119  1.00  0.00    -0.273 OA
ATOM     19  H   UNL     1      -6.969   0.573   2.616  1.00  0.00     0.164 HD
BRANCH  17  20
ATOM     20  CA  SER A   1      -6.614   3.216   3.029  1.00  0.00     0.167 C 
BRANCH  20  21
ATOM     21  N   SER A   1      -5.776   4.376   3.353  1.00  0.00    -0.318 NA
ATOM     22  H   UNL     1      -4.839   4.037   3.670  1.00  0.00     0.119 HD
ATOM     23  H   UNL     1      -5.631   4.964   2.498  1.00  0.00     0.119 HD
ENDBRANCH  20  21
BRANCH  20  24
ATOM     24  CB  SER A   1      -8.009   3.675   2.576  1.00  0.00     0.184 C 
BRANCH  24  25
ATOM     25  OG  SER A   1      -8.660   4.362   3.611  1.00  0.00    -0.394 OA
ATOM     26  H   UNL     1      -8.327   5.296   3.590  1.00  0.00     0.210 HD
ENDBRANCH  24  25
ENDBRANCH  20  24
ENDBRANCH  17  20
ENDBRANCH  15  16
BRANCH  15  27
ATOM     27  CB  PHE A   2      -6.225   0.521  -0.576  1.00  0.00     0.070 C 
BRANCH  27  28
ATOM     28  CG  PHE A   2      -7.685   0.890  -0.685  1.00  0.00    -0.045 A 
ATOM     29  CD1 PHE A   2      -8.077   2.237  -0.760  1.00  0.00     0.004 A 
ATOM     30  CD2 PHE A   2      -8.671  -0.112  -0.667  1.00  0.00     0.004 A 
ATOM     31  CE1 PHE A   2      -9.432   2.574  -0.822  1.00  0.00     0.000 A 
ATOM     32  CE2 PHE A   2     -10.026   0.231  -0.728  1.00  0.00     0.000 A 
ATOM     33  CZ  PHE A   2     -10.406   1.572  -0.806  1.00  0.00     0.000 A 
ENDBRANCH  27  28
ENDBRANCH  15  27
ENDBRANCH  12  15
ENDBRANCH  10  11
BRANCH  10  34
ATOM     34  CB  GLN A   3      -2.569  -3.501   1.235  1.00  0.00     0.045 C 
BRANCH  34  35
ATOM     35  CG  GLN A   3      -3.517  -3.809   2.404  1.00  0.00     0.102 C 
BRANCH  35  36
ATOM     36  CD  GLN A   3      -3.140  -3.061   3.649  1.00  0.00     0.217 C 
ATOM     37  NE2 GLN A   3      -3.916  -1.946   4.087  1.00  0.00    -0.370 N 
ATOM     38  OE1 GLN A   3      -2.108  -3.392   4.287  1.00  0.00    -0.275 OA
ATOM     39  H   UNL     1      -4.764  -1.646   3.557  1.00  0.00     0.159 HD
ATOM     40  H   UNL     1      -3.637  -1.405   4.935  1.00  0.00     0.159 HD
ENDBRANCH  35  36
ENDBRANCH  34  35
ENDBRANCH  10  34
ENDBRANCH   7  10
ENDBRANCH   5   6
BRANCH   5  41
ATOM     41  CB  LEU A   4       0.542   0.881  -1.735  1.00  0.00     0.038 C 
BRANCH  41  42
ATOM     42  CG  LEU A   4      -0.732   1.336  -2.489  1.00  0.00    -0.015 C 
ATOM     43  CD1 LEU A   4      -0.646   2.833  -2.803  1.00  0.00     0.007 C 
ATOM     44  CD2 LEU A   4      -0.948   0.546  -3.789  1.00  0.00     0.007 C 
ENDBRANCH  41  42
ENDBRANCH   5  41
ENDBRANCH   1   5
BRANCH   3  45
ATOM     45  CA  ARG A   5       4.107  -1.835  -0.593  1.00  0.00     0.171 C 
BRANCH  45  46
ATOM     46  C   ARG A   5       5.157  -0.826  -0.986  1.00  0.00     0.243 C 
ATOM     47  N   ARG A   6       6.457  -0.868  -0.377  1.00  0.00    -0.341 N 
ATOM     48  O   ARG A   5       4.887   0.066  -1.838  1.00  0.00    -0.273 OA
ATOM     49  H   UNL     1       6.642  -1.614   0.331  1.00  0.00     0.164 HD
BRANCH  47  50
ATOM     50  CA  ARG A   6       7.468   0.169  -0.621  1.00  0.00     0.192 C 
BRANCH  50  51
ATOM     51  C   ARG A   6       8.846  -0.303  -0.236  1.00  0.00     0.326 C 
ATOM     52  O   ARG A   6       9.025  -0.989   0.806  1.00  0.00    -0.250 OA
BRANCH  51  53
ATOM     53  OXT ARG A   6       9.936   0.056  -1.023  1.00  0.00    -0.480 OA
ATOM     54  H   UNL     1      10.874  -0.236  -0.773  1.00  0.00     0.296 HD
ENDBRANCH  51  53
ENDBRANCH  50  51
BRANCH  50  55
ATOM     55  CB  ARG A   6       7.102   1.483   0.099  1.00  0.00     0.039 C 
BRANCH  55  56
ATOM     56  CG  ARG A   6       6.924   1.314   1.620  1.00  0.00     0.024 C 
BRANCH  56  57
ATOM     57  CD  ARG A   6       6.336   2.576   2.266  1.00  0.00     0.116 C 
BRANCH  57  58
ATOM     58  NE  ARG A   6       4.977   2.836   1.787  1.00  0.00    -0.357 N 
ATOM     59  CZ  ARG A   6       3.837   2.054   2.177  1.00  0.00     0.185 C 
ATOM     60  NH2 ARG A   6       2.551   2.366   1.634  1.00  0.00    -0.370 N 
ATOM     61  H   UNL     1       4.825   3.658   1.160  1.00  0.00     0.163 HD
ATOM     62  H   UNL     1       2.444   3.140   0.941  1.00  0.00     0.159 HD
ATOM     63  H   UNL     1       1.700   1.838   1.931  1.00  0.00     0.159 HD
BRANCH  59  64
ATOM     64  NH1 ARG A   6       3.968   1.076   3.017  1.00  0.00    -0.270 NA
ATOM     65  H   UNL     1       3.151   0.497   3.316  1.00  0.00     0.191 HD
ENDBRANCH  59  64
ENDBRANCH  57  58
ENDBRANCH  56  57
ENDBRANCH  55  56
ENDBRANCH  50  55
ENDBRANCH  47  50
ENDBRANCH  45  46
BRANCH  45  66
ATOM     66  CB  ARG A   5       4.519  -3.300  -0.884  1.00  0.00     0.037 C 
BRANCH  66  67
ATOM     67  CG  ARG A   5       4.615  -3.732  -2.367  1.00  0.00     0.024 C 
BRANCH  67  68
ATOM     68  CD  ARG A   5       5.760  -3.091  -3.169  1.00  0.00     0.116 C 
BRANCH  68  69
ATOM     69  NE  ARG A   5       7.073  -3.367  -2.578  1.00  0.00    -0.357 N 
ATOM     70  CZ  ARG A   5       8.291  -2.744  -3.021  1.00  0.00     0.185 C 
ATOM     71  NH2 ARG A   5       9.510  -3.010  -2.323  1.00  0.00    -0.370 N 
ATOM     72  H   UNL     1       7.152  -4.072  -1.811  1.00  0.00     0.163 HD
ATOM     73  H   UNL     1       9.526  -3.664  -1.509  1.00  0.00     0.159 HD
ATOM     74  H   UNL     1      10.400  -2.550  -2.617  1.00  0.00     0.159 HD
BRANCH  70  75
ATOM     75  NH1 ARG A   5       8.313  -1.937  -4.035  1.00  0.00    -0.270 NA
ATOM     76  H   UNL     1       7.469  -1.700  -4.602  1.00  0.00     0.191 HD
ENDBRANCH  70  75
ENDBRANCH  68  69
ENDBRANCH  67  68
ENDBRANCH  66  67
ENDBRANCH  45  66
ENDBRANCH   3  45
TORSDOF 32
