REMARK SMILES CC[C@H](C)[C@H](NC(=O)[C@H](CC(N)=O)NC(=O)[C@H](Cc1ccccc1)NC(=O)[C@@H](N)CO)C(=O)N[C@@H](CCCNC(=N)N)C(=O)N[C@@H](CC(N)=O)C(=O)O
REMARK SMILES IDX 7 1 8 2 6 3 9 5 14 6 15 7 16 8 17 10 25 11 26 12 27 13 28 15
REMARK SMILES IDX 29 16 30 19 31 20 18 22 19 23 20 24 24 25 21 26 23 27 22 28
REMARK SMILES IDX 10 29 11 30 12 31 13 32 5 35 32 36 34 37 33 38 35 40 43 41
REMARK SMILES IDX 45 42 44 43 46 45 51 46 52 47 53 48 47 50 48 51 49 52 50 53
REMARK SMILES IDX 36 56 37 57 38 58 39 59 40 60 42 61 41 65 3 67 4 68 2 69
REMARK SMILES IDX 1 70
REMARK H PARENT 6 4 14 9 25 14 29 17 29 18 31 21 12 33 12 34 34 39 45 44 53 49
REMARK H PARENT 49 54 49 55 39 62 42 63 42 64 41 66
ROOT
ATOM      1  C   ASN A   3       0.734  -0.278   1.554  1.00  0.00     0.243 C 
ATOM      2  O   ASN A   3      -0.103  -1.021   2.136  1.00  0.00    -0.273 OA
ATOM      3  N   ILE A   4       0.278   0.731   0.632  1.00  0.00    -0.342 N 
ATOM      4  H   UNL     1       0.987   1.366   0.207  1.00  0.00     0.164 HD
ENDROOT
BRANCH   1   5
ATOM      5  CA  ASN A   3       2.202  -0.446   1.880  1.00  0.00     0.180 C 
BRANCH   5   6
ATOM      6  N   ASN A   3       3.028  -0.469   0.668  1.00  0.00    -0.342 N 
ATOM      7  C   PHE A   2       4.394  -0.914   0.683  1.00  0.00     0.243 C 
ATOM      8  O   PHE A   2       4.894  -1.383   1.743  1.00  0.00    -0.273 OA
ATOM      9  H   UNL     1       2.615  -0.181  -0.246  1.00  0.00     0.164 HD
BRANCH   7  10
ATOM     10  CA  PHE A   2       5.254  -0.764  -0.548  1.00  0.00     0.175 C 
BRANCH  10  11
ATOM     11  N   PHE A   2       6.370   0.149  -0.274  1.00  0.00    -0.343 N 
ATOM     12  C   SER A   1       6.961   0.973  -1.290  1.00  0.00     0.239 C 
ATOM     13  O   SER A   1       6.599   0.853  -2.489  1.00  0.00    -0.273 OA
ATOM     14  H   UNL     1       6.785   0.164   0.687  1.00  0.00     0.164 HD
BRANCH  12  15
ATOM     15  CA  SER A   1       8.039   1.977  -0.946  1.00  0.00     0.167 C 
BRANCH  15  16
ATOM     16  N   SER A   1       7.575   2.930   0.068  1.00  0.00    -0.318 NA
ATOM     17  H   UNL     1       7.357   2.428   0.959  1.00  0.00     0.119 HD
ATOM     18  H   UNL     1       6.690   3.372  -0.268  1.00  0.00     0.119 HD
ENDBRANCH  15  16
BRANCH  15  19
ATOM     19  CB  SER A   1       9.319   1.267  -0.480  1.00  0.00     0.184 C 
BRANCH  19  20
ATOM     20  OG  SER A   1      10.334   2.202  -0.238  1.00  0.00    -0.394 OA
ATOM     21  H   UNL     1      10.215   2.522   0.695  1.00  0.00     0.210 HD
ENDBRANCH  19  20
ENDBRANCH  15  19
ENDBRANCH  12  15
ENDBRANCH  10  11
BRANCH  10  22
ATOM     22  CB  PHE A   2       5.752  -2.124  -1.084  1.00  0.00     0.070 C 
BRANCH  22  23
ATOM     23  CG  PHE A   2       6.761  -2.795  -0.181  1.00  0.00    -0.045 A 
ATOM     24  CD1 PHE A   2       6.356  -3.776   0.741  1.00  0.00     0.004 A 
ATOM     25  CD2 PHE A   2       8.116  -2.430  -0.241  1.00  0.00     0.004 A 
ATOM     26  CE1 PHE A   2       7.289  -4.364   1.603  1.00  0.00     0.000 A 
ATOM     27  CE2 PHE A   2       9.045  -3.020   0.621  1.00  0.00     0.000 A 
ATOM     28  CZ  PHE A   2       8.632  -3.981   1.546  1.00  0.00     0.000 A 
ENDBRANCH  22  23
ENDBRANCH  10  22
ENDBRANCH   7  10
ENDBRANCH   5   6
BRANCH   5  29
ATOM     29  CB  ASN A   3       2.686   0.622   2.882  1.00  0.00     0.134 C 
BRANCH  29  30
ATOM     30  CG  ASN A   3       2.756   2.003   2.294  1.00  0.00     0.220 C 
ATOM     31  ND2 ASN A   3       3.934   2.447   1.626  1.00  0.00    -0.370 N 
ATOM     32  OD1 ASN A   3       1.765   2.770   2.384  1.00  0.00    -0.275 OA
ATOM     33  H   UNL     1       3.965   3.389   1.177  1.00  0.00     0.159 HD
ATOM     34  H   UNL     1       4.779   1.838   1.567  1.00  0.00     0.159 HD
ENDBRANCH  29  30
ENDBRANCH   5  29
ENDBRANCH   1   5
BRANCH   3  35
ATOM     35  CA  ILE A   4      -1.153   0.981   0.398  1.00  0.00     0.174 C 
BRANCH  35  36
ATOM     36  C   ILE A   4      -1.837  -0.222  -0.207  1.00  0.00     0.243 C 
ATOM     37  N   ARG A   5      -3.267  -0.309  -0.169  1.00  0.00    -0.343 N 
ATOM     38  O   ILE A   4      -1.160  -1.141  -0.743  1.00  0.00    -0.273 OA
ATOM     39  H   UNL     1      -3.785   0.389   0.411  1.00  0.00     0.164 HD
BRANCH  37  40
ATOM     40  CA  ARG A   5      -4.012  -1.390  -0.820  1.00  0.00     0.171 C 
BRANCH  40  41
ATOM     41  C   ARG A   5      -5.353  -0.899  -1.320  1.00  0.00     0.243 C 
ATOM     42  N   ASN A   6      -5.567   0.493  -1.594  1.00  0.00    -0.341 N 
ATOM     43  O   ARG A   5      -6.261  -1.730  -1.596  1.00  0.00    -0.273 OA
ATOM     44  H   UNL     1      -4.734   1.089  -1.801  1.00  0.00     0.164 HD
BRANCH  42  45
ATOM     45  CA  ASN A   6      -6.827   1.158  -1.250  1.00  0.00     0.201 C 
BRANCH  45  46
ATOM     46  C   ASN A   6      -7.209   2.128  -2.338  1.00  0.00     0.326 C 
ATOM     47  O   ASN A   6      -6.331   2.843  -2.892  1.00  0.00    -0.250 OA
BRANCH  46  48
ATOM     48  OXT ASN A   6      -8.546   2.275  -2.696  1.00  0.00    -0.480 OA
ATOM     49  H   UNL     1      -8.823   2.936  -3.413  1.00  0.00     0.296 HD
ENDBRANCH  46  48
ENDBRANCH  45  46
BRANCH  45  50
ATOM     50  CB  ASN A   6      -6.668   1.884   0.099  1.00  0.00     0.136 C 
BRANCH  50  51
ATOM     51  CG  ASN A   6      -7.971   2.442   0.587  1.00  0.00     0.220 C 
ATOM     52  ND2 ASN A   6      -8.267   3.830   0.439  1.00  0.00    -0.370 N 
ATOM     53  OD1 ASN A   6      -8.820   1.675   1.115  1.00  0.00    -0.275 OA
ATOM     54  H   UNL     1      -9.174   4.209   0.789  1.00  0.00     0.159 HD
ATOM     55  H   UNL     1      -7.579   4.479   0.005  1.00  0.00     0.159 HD
ENDBRANCH  50  51
ENDBRANCH  45  50
ENDBRANCH  42  45
ENDBRANCH  40  41
BRANCH  40  56
ATOM     56  CB  ARG A   5      -4.115  -2.612   0.124  1.00  0.00     0.037 C 
BRANCH  56  57
ATOM     57  CG  ARG A   5      -4.672  -2.323   1.541  1.00  0.00     0.024 C 
BRANCH  57  58
ATOM     58  CD  ARG A   5      -6.193  -2.107   1.599  1.00  0.00     0.116 C 
BRANCH  58  59
ATOM     59  NE  ARG A   5      -6.917  -3.286   1.120  1.00  0.00    -0.357 N 
ATOM     60  CZ  ARG A   5      -8.263  -3.233   0.608  1.00  0.00     0.185 C 
ATOM     61  NH2 ARG A   5      -8.763  -4.324  -0.162  1.00  0.00    -0.370 N 
ATOM     62  H   UNL     1      -6.432  -4.213   1.109  1.00  0.00     0.163 HD
ATOM     63  H   UNL     1      -8.147  -5.134  -0.394  1.00  0.00     0.159 HD
ATOM     64  H   UNL     1      -9.734  -4.304  -0.545  1.00  0.00     0.159 HD
BRANCH  60  65
ATOM     65  NH1 ARG A   5      -9.041  -2.221   0.846  1.00  0.00    -0.270 NA
ATOM     66  H   UNL     1      -8.751  -1.406   1.426  1.00  0.00     0.191 HD
ENDBRANCH  60  65
ENDBRANCH  58  59
ENDBRANCH  57  58
ENDBRANCH  56  57
ENDBRANCH  40  56
ENDBRANCH  37  40
ENDBRANCH  35  36
BRANCH  35  67
ATOM     67  CB  ILE A   4      -1.417   2.276  -0.436  1.00  0.00     0.018 C 
ATOM     68  CG1 ILE A   4      -1.024   3.521   0.377  1.00  0.00     0.010 C 
BRANCH  67  69
ATOM     69  CG2 ILE A   4      -0.743   2.334  -1.834  1.00  0.00     0.002 C 
ATOM     70  CD1 ILE A   4      -1.327   1.361  -2.859  1.00  0.00     0.004 C 
ENDBRANCH  67  69
ENDBRANCH  35  67
ENDBRANCH   3  35
TORSDOF 28
