REMARK SMILES CC(C)C[C@H](NC(=O)[C@H](CC(=O)O)NC(=O)[C@@H](N)CO)C(=O)NCC(=O)N[C@@H](CCCNC(=N)N)C(=O)N[C@@H](CC(N)=O)C(=O)O
REMARK SMILES IDX 21 1 22 2 23 3 5 5 6 6 7 7 8 8 9 10 14 11 15 12 16 13 17 15
REMARK SMILES IDX 18 16 19 19 20 20 10 22 11 23 12 24 13 25 4 27 2 28 1 29
REMARK SMILES IDX 3 30 24 31 25 32 27 33 26 34 28 36 36 37 38 38 37 39 39 41
REMARK SMILES IDX 44 42 45 43 46 44 40 46 41 47 42 48 43 49 29 52 30 53 31 54
REMARK SMILES IDX 32 55 33 56 35 57 34 61
REMARK H PARENT 23 4 6 9 14 14 18 17 18 18 20 21 13 26 27 35 38 40 46 45 42 50
REMARK H PARENT 42 51 32 58 35 59 35 60 34 62
ROOT
ATOM      1  C   LEU A   3       1.835  -0.578  -0.976  1.00  0.00     0.243 C 
ATOM      2  O   LEU A   3       2.371  -0.605  -2.117  1.00  0.00    -0.273 OA
ATOM      3  N   GLY A   4       0.693  -1.399  -0.704  1.00  0.00    -0.345 N 
ATOM      4  H   UNL     1       0.291  -1.394   0.261  1.00  0.00     0.164 HD
ENDROOT
BRANCH   1   5
ATOM      5  CA  LEU A   3       2.348   0.368   0.082  1.00  0.00     0.171 C 
BRANCH   5   6
ATOM      6  N   LEU A   3       3.699   0.853  -0.235  1.00  0.00    -0.342 N 
ATOM      7  C   ASP A   2       4.824  -0.033  -0.352  1.00  0.00     0.243 C 
ATOM      8  O   ASP A   2       4.702  -1.254  -0.060  1.00  0.00    -0.273 OA
ATOM      9  H   UNL     1       3.885   1.880  -0.272  1.00  0.00     0.164 HD
BRANCH   7  10
ATOM     10  CA  ASP A   2       6.122   0.470  -0.927  1.00  0.00     0.182 C 
BRANCH  10  11
ATOM     11  N   ASP A   2       7.254  -0.185  -0.262  1.00  0.00    -0.342 N 
ATOM     12  C   SER A   1       7.931   0.397   0.865  1.00  0.00     0.239 C 
ATOM     13  O   SER A   1       7.583   1.531   1.303  1.00  0.00    -0.273 OA
ATOM     14  H   UNL     1       7.517  -1.151  -0.565  1.00  0.00     0.164 HD
BRANCH  12  15
ATOM     15  CA  SER A   1       9.098  -0.311   1.507  1.00  0.00     0.167 C 
BRANCH  15  16
ATOM     16  N   SER A   1       8.799  -1.735   1.679  1.00  0.00    -0.318 NA
ATOM     17  H   UNL     1       9.601  -2.183   2.179  1.00  0.00     0.119 HD
ATOM     18  H   UNL     1       7.975  -1.819   2.319  1.00  0.00     0.119 HD
ENDBRANCH  15  16
BRANCH  15  19
ATOM     19  CB  SER A   1      10.374  -0.115   0.671  1.00  0.00     0.184 C 
BRANCH  19  20
ATOM     20  OG  SER A   1      10.223  -0.628  -0.625  1.00  0.00    -0.394 OA
ATOM     21  H   UNL     1      10.315  -1.614  -0.555  1.00  0.00     0.210 HD
ENDBRANCH  19  20
ENDBRANCH  15  19
ENDBRANCH  12  15
ENDBRANCH  10  11
BRANCH  10  22
ATOM     22  CB  ASP A   2       6.149   0.202  -2.442  1.00  0.00     0.157 C 
BRANCH  22  23
ATOM     23  CG  ASP A   2       7.419   0.690  -3.077  1.00  0.00     0.305 C 
ATOM     24  OD1 ASP A   2       7.807   1.876  -2.891  1.00  0.00    -0.252 OA
BRANCH  23  25
ATOM     25  OD2 ASP A   2       8.145  -0.155  -3.913  1.00  0.00    -0.481 OA
ATOM     26  H   UNL     1       8.995   0.166  -4.359  1.00  0.00     0.296 HD
ENDBRANCH  23  25
ENDBRANCH  22  23
ENDBRANCH  10  22
ENDBRANCH   7  10
ENDBRANCH   5   6
BRANCH   5  27
ATOM     27  CB  LEU A   3       1.364   1.543   0.325  1.00  0.00     0.038 C 
BRANCH  27  28
ATOM     28  CG  LEU A   3       0.752   2.198  -0.943  1.00  0.00    -0.015 C 
ATOM     29  CD1 LEU A   3       1.811   2.853  -1.844  1.00  0.00     0.007 C 
ATOM     30  CD2 LEU A   3      -0.295   3.243  -0.538  1.00  0.00     0.007 C 
ENDBRANCH  27  28
ENDBRANCH   5  27
ENDBRANCH   1   5
BRANCH   3  31
ATOM     31  CA  GLY A   4       0.041  -2.168  -1.762  1.00  0.00     0.216 C 
BRANCH  31  32
ATOM     32  C   GLY A   4      -1.284  -2.688  -1.294  1.00  0.00     0.240 C 
ATOM     33  N   ARG A   5      -2.351  -1.770  -1.014  1.00  0.00    -0.343 N 
ATOM     34  O   GLY A   4      -1.449  -3.928  -1.143  1.00  0.00    -0.273 OA
ATOM     35  H   UNL     1      -2.139  -0.749  -1.073  1.00  0.00     0.164 HD
BRANCH  33  36
ATOM     36  CA  ARG A   5      -3.632  -2.210  -0.446  1.00  0.00     0.171 C 
BRANCH  36  37
ATOM     37  C   ARG A   5      -4.766  -1.302  -0.857  1.00  0.00     0.243 C 
ATOM     38  N   ASN A   6      -6.115  -1.662  -0.532  1.00  0.00    -0.341 N 
ATOM     39  O   ARG A   5      -4.533  -0.226  -1.478  1.00  0.00    -0.273 OA
ATOM     40  H   UNL     1      -6.300  -2.642  -0.219  1.00  0.00     0.164 HD
BRANCH  38  41
ATOM     41  CA  ASN A   6      -7.250  -0.763  -0.754  1.00  0.00     0.201 C 
BRANCH  41  42
ATOM     42  C   ASN A   6      -8.241  -0.905   0.371  1.00  0.00     0.326 C 
ATOM     43  O   ASN A   6      -8.684  -2.041   0.696  1.00  0.00    -0.250 OA
BRANCH  42  44
ATOM     44  OXT ASN A   6      -8.691   0.232   1.036  1.00  0.00    -0.480 OA
ATOM     45  H   UNL     1      -9.367   0.160   1.788  1.00  0.00     0.296 HD
ENDBRANCH  42  44
ENDBRANCH  41  42
BRANCH  41  46
ATOM     46  CB  ASN A   6      -7.894  -1.072  -2.115  1.00  0.00     0.136 C 
BRANCH  46  47
ATOM     47  CG  ASN A   6      -9.029  -0.136  -2.420  1.00  0.00     0.220 C 
ATOM     48  ND2 ASN A   6     -10.373  -0.622  -2.486  1.00  0.00    -0.370 N 
ATOM     49  OD1 ASN A   6      -8.795   1.088  -2.611  1.00  0.00    -0.275 OA
ATOM     50  H   UNL     1     -10.584  -1.634  -2.343  1.00  0.00     0.159 HD
ATOM     51  H   UNL     1     -11.162   0.036  -2.676  1.00  0.00     0.159 HD
ENDBRANCH  46  47
ENDBRANCH  41  46
ENDBRANCH  38  41
ENDBRANCH  36  37
BRANCH  36  52
ATOM     52  CB  ARG A   5      -3.523  -2.363   1.089  1.00  0.00     0.037 C 
BRANCH  52  53
ATOM     53  CG  ARG A   5      -3.086  -1.097   1.856  1.00  0.00     0.024 C 
BRANCH  53  54
ATOM     54  CD  ARG A   5      -4.226  -0.086   2.060  1.00  0.00     0.116 C 
BRANCH  54  55
ATOM     55  NE  ARG A   5      -3.854   0.928   3.048  1.00  0.00    -0.357 N 
ATOM     56  CZ  ARG A   5      -4.773   1.945   3.470  1.00  0.00     0.185 C 
ATOM     57  NH2 ARG A   5      -4.369   2.898   4.458  1.00  0.00    -0.370 N 
ATOM     58  H   UNL     1      -2.895   0.920   3.468  1.00  0.00     0.163 HD
ATOM     59  H   UNL     1      -3.401   2.877   4.846  1.00  0.00     0.159 HD
ATOM     60  H   UNL     1      -5.034   3.624   4.802  1.00  0.00     0.159 HD
BRANCH  56  61
ATOM     61  NH1 ARG A   5      -5.966   2.003   2.961  1.00  0.00    -0.270 NA
ATOM     62  H   UNL     1      -6.652   2.735   3.250  1.00  0.00     0.191 HD
ENDBRANCH  56  61
ENDBRANCH  54  55
ENDBRANCH  53  54
ENDBRANCH  52  53
ENDBRANCH  36  52
ENDBRANCH  33  36
ENDBRANCH  31  32
ENDBRANCH   3  31
TORSDOF 27
