REMARK SMILES CC(C)C[C@H](NC(=O)[C@H](Cc1c[nH]cn1)NC(=O)[C@H](Cc1ccccc1)NC(=O)[C@@H](N)CO)C(=O)N[C@@H](CCCNC(=N)N)C(=O)NCC(=O)O
REMARK SMILES IDX 7 1 8 2 6 3 9 5 16 6 17 7 18 8 19 10 27 11 28 12 29 13 30 15
REMARK SMILES IDX 31 16 32 19 33 20 20 22 21 23 22 24 26 25 23 26 25 27 24 28
REMARK SMILES IDX 10 29 11 30 15 31 12 32 14 33 13 34 5 36 34 37 36 38 35 39
REMARK SMILES IDX 37 41 45 42 47 43 46 44 48 46 49 47 50 48 51 49 38 51 39 52
REMARK SMILES IDX 40 53 41 54 42 55 44 56 43 60 4 62 2 63 1 64 3 65
REMARK H PARENT 6 4 16 9 27 14 31 17 31 18 33 21 13 35 36 40 47 45 51 50 41 57
REMARK H PARENT 44 58 44 59 43 61
ROOT
ATOM      1  C   HIS A   3      -0.416  -1.305   0.903  1.00  0.00     0.243 C 
ATOM      2  O   HIS A   3      -0.518  -1.895  -0.207  1.00  0.00    -0.273 OA
ATOM      3  N   LEU A   4       0.581  -1.730   1.855  1.00  0.00    -0.342 N 
ATOM      4  H   UNL     1       0.566  -1.309   2.812  1.00  0.00     0.164 HD
ENDROOT
BRANCH   1   5
ATOM      5  CA  HIS A   3      -1.278  -0.084   1.160  1.00  0.00     0.177 C 
BRANCH   5   6
ATOM      6  N   HIS A   3      -2.445  -0.085   0.267  1.00  0.00    -0.342 N 
ATOM      7  C   PHE A   2      -2.897   1.089  -0.427  1.00  0.00     0.243 C 
ATOM      8  O   PHE A   2      -2.111   2.064  -0.604  1.00  0.00    -0.273 OA
ATOM      9  H   UNL     1      -3.055  -0.932   0.250  1.00  0.00     0.164 HD
BRANCH   7  10
ATOM     10  CA  PHE A   2      -4.304   1.139  -0.969  1.00  0.00     0.175 C 
BRANCH  10  11
ATOM     11  N   PHE A   2      -4.676   2.520  -1.312  1.00  0.00    -0.343 N 
ATOM     12  C   SER A   1      -5.903   3.132  -0.878  1.00  0.00     0.239 C 
ATOM     13  O   SER A   1      -6.604   2.579   0.017  1.00  0.00    -0.273 OA
ATOM     14  H   UNL     1      -4.088   3.029  -2.012  1.00  0.00     0.164 HD
BRANCH  12  15
ATOM     15  CA  SER A   1      -6.307   4.482  -1.430  1.00  0.00     0.167 C 
BRANCH  15  16
ATOM     16  N   SER A   1      -6.066   4.528  -2.877  1.00  0.00    -0.318 NA
ATOM     17  H   UNL     1      -6.752   3.907  -3.368  1.00  0.00     0.119 HD
ATOM     18  H   UNL     1      -6.229   5.505  -3.215  1.00  0.00     0.119 HD
ENDBRANCH  15  16
BRANCH  15  19
ATOM     19  CB  SER A   1      -7.772   4.849  -1.105  1.00  0.00     0.184 C 
BRANCH  19  20
ATOM     20  OG  SER A   1      -8.652   3.902  -1.651  1.00  0.00    -0.394 OA
ATOM     21  H   UNL     1      -9.561   4.168  -1.349  1.00  0.00     0.210 HD
ENDBRANCH  19  20
ENDBRANCH  15  19
ENDBRANCH  12  15
ENDBRANCH  10  11
BRANCH  10  22
ATOM     22  CB  PHE A   2      -4.440   0.232  -2.207  1.00  0.00     0.070 C 
BRANCH  22  23
ATOM     23  CG  PHE A   2      -5.861   0.226  -2.719  1.00  0.00    -0.045 A 
ATOM     24  CD1 PHE A   2      -6.848  -0.521  -2.051  1.00  0.00     0.004 A 
ATOM     25  CD2 PHE A   2      -6.229   1.031  -3.810  1.00  0.00     0.004 A 
ATOM     26  CE1 PHE A   2      -8.181  -0.464  -2.474  1.00  0.00     0.000 A 
ATOM     27  CE2 PHE A   2      -7.564   1.084  -4.228  1.00  0.00     0.000 A 
ATOM     28  CZ  PHE A   2      -8.541   0.339  -3.561  1.00  0.00     0.000 A 
ENDBRANCH  22  23
ENDBRANCH  10  22
ENDBRANCH   7  10
ENDBRANCH   5   6
BRANCH   5  29
ATOM     29  CB  HIS A   3      -1.745   0.078   2.625  1.00  0.00     0.093 C 
BRANCH  29  30
ATOM     30  CG  HIS A   3      -2.363  -1.159   3.215  1.00  0.00     0.061 A 
ATOM     31  ND1 HIS A   3      -3.352  -1.873   2.635  1.00  0.00    -0.242 NA
ATOM     32  CD2 HIS A   3      -2.069  -1.691   4.450  1.00  0.00     0.107 A 
ATOM     33  CE1 HIS A   3      -3.622  -2.845   3.531  1.00  0.00     0.196 A 
ATOM     34  NE2 HIS A   3      -2.861  -2.758   4.638  1.00  0.00    -0.351 N 
ATOM     35  H   UNL     1      -2.879  -3.389   5.468  1.00  0.00     0.167 HD
ENDBRANCH  29  30
ENDBRANCH   5  29
ENDBRANCH   1   5
BRANCH   3  36
ATOM     36  CA  LEU A   4       1.739  -2.583   1.547  1.00  0.00     0.171 C 
BRANCH  36  37
ATOM     37  C   LEU A   4       2.653  -1.885   0.567  1.00  0.00     0.243 C 
ATOM     38  N   ARG A   5       3.958  -1.445   0.986  1.00  0.00    -0.343 N 
ATOM     39  O   LEU A   4       2.267  -1.684  -0.616  1.00  0.00    -0.273 OA
ATOM     40  H   UNL     1       4.269  -1.657   1.961  1.00  0.00     0.164 HD
BRANCH  38  41
ATOM     41  CA  ARG A   5       4.833  -0.608   0.159  1.00  0.00     0.171 C 
BRANCH  41  42
ATOM     42  C   ARG A   5       6.178  -1.276   0.016  1.00  0.00     0.243 C 
ATOM     43  N   GLY A   6       6.779  -1.428  -1.276  1.00  0.00    -0.343 N 
ATOM     44  O   ARG A   5       6.791  -1.669   1.044  1.00  0.00    -0.273 OA
ATOM     45  H   UNL     1       6.250  -1.132  -2.126  1.00  0.00     0.164 HD
BRANCH  43  46
ATOM     46  CA  GLY A   6       8.126  -1.972  -1.454  1.00  0.00     0.238 C 
BRANCH  46  47
ATOM     47  C   GLY A   6       9.153  -1.020  -0.929  1.00  0.00     0.322 C 
ATOM     48  O   GLY A   6       9.164   0.179  -1.316  1.00  0.00    -0.250 OA
BRANCH  47  49
ATOM     49  OXT GLY A   6      10.114  -1.471  -0.027  1.00  0.00    -0.480 OA
ATOM     50  H   UNL     1      10.812  -0.837   0.345  1.00  0.00     0.296 HD
ENDBRANCH  47  49
ENDBRANCH  46  47
ENDBRANCH  43  46
ENDBRANCH  41  42
BRANCH  41  51
ATOM     51  CB  ARG A   5       4.976   0.780   0.807  1.00  0.00     0.037 C 
BRANCH  51  52
ATOM     52  CG  ARG A   5       5.747   1.764  -0.084  1.00  0.00     0.024 C 
BRANCH  52  53
ATOM     53  CD  ARG A   5       5.853   3.142   0.580  1.00  0.00     0.116 C 
BRANCH  53  54
ATOM     54  NE  ARG A   5       6.586   4.069  -0.279  1.00  0.00    -0.357 N 
ATOM     55  CZ  ARG A   5       8.013   4.040  -0.419  1.00  0.00     0.185 C 
ATOM     56  NH2 ARG A   5       8.659   4.980  -1.278  1.00  0.00    -0.370 N 
ATOM     57  H   UNL     1       6.050   4.820  -0.766  1.00  0.00     0.163 HD
ATOM     58  H   UNL     1       8.099   5.686  -1.806  1.00  0.00     0.159 HD
ATOM     59  H   UNL     1       9.698   4.969  -1.399  1.00  0.00     0.159 HD
BRANCH  55  60
ATOM     60  NH1 ARG A   5       8.717   3.167   0.230  1.00  0.00    -0.270 NA
ATOM     61  H   UNL     1       9.757   3.125   0.142  1.00  0.00     0.191 HD
ENDBRANCH  55  60
ENDBRANCH  53  54
ENDBRANCH  52  53
ENDBRANCH  51  52
ENDBRANCH  41  51
ENDBRANCH  38  41
ENDBRANCH  36  37
BRANCH  36  62
ATOM     62  CB  LEU A   4       1.349  -3.998   1.049  1.00  0.00     0.038 C 
BRANCH  62  63
ATOM     63  CG  LEU A   4       0.854  -4.949   2.164  1.00  0.00    -0.015 C 
ATOM     64  CD1 LEU A   4      -0.477  -4.489   2.770  1.00  0.00     0.007 C 
ATOM     65  CD2 LEU A   4       0.712  -6.373   1.606  1.00  0.00     0.007 C 
ENDBRANCH  62  63
ENDBRANCH  36  62
ENDBRANCH   3  36
TORSDOF 26
