REMARK SMILES N=C(N)NCCC[C@H](NC(=O)[C@H](Cc1ccccc1)NC(=O)CNC(=O)[C@H](Cc1ccccc1)NC(=O)[C@@H](N)CO)C(=O)N[C@@H](CC(N)=O)C(=O)O
REMARK SMILES IDX 21 1 22 2 20 3 23 5 24 6 25 7 26 8 27 10 35 11 36 12 37 13
REMARK SMILES IDX 38 15 39 16 40 19 41 20 28 22 29 23 30 24 34 25 31 26 33 27
REMARK SMILES IDX 32 28 12 29 10 30 9 31 11 32 8 34 42 35 44 36 43 37 45 39
REMARK SMILES IDX 50 40 51 41 52 42 46 44 47 45 48 46 49 47 7 50 6 51 5 52
REMARK SMILES IDX 4 53 2 54 3 55 1 59 13 61 14 62 15 63 19 64 16 65 18 66
REMARK SMILES IDX 17 67
REMARK H PARENT 20 4 24 9 35 14 39 17 39 18 41 21 9 33 44 38 52 43 48 48 48 49
REMARK H PARENT 4 56 3 57 3 58 1 60
ROOT
ATOM      1  C   GLY A   3      20.043  10.097  -6.469  1.00  0.00     0.240 C 
ATOM      2  O   GLY A   3      20.174   9.204  -5.587  1.00  0.00    -0.273 OA
ATOM      3  N   PHE A   4      20.560   9.910  -7.778  1.00  0.00    -0.342 N 
ATOM      4  H   UNL     1      20.391  10.641  -8.507  1.00  0.00     0.164 HD
ENDROOT
BRANCH   1   5
ATOM      5  CA  GLY A   3      19.352  11.374  -6.158  1.00  0.00     0.216 C 
BRANCH   5   6
ATOM      6  N   GLY A   3      18.113  11.083  -5.480  1.00  0.00    -0.345 N 
ATOM      7  C   PHE A   2      16.898  11.758  -5.772  1.00  0.00     0.243 C 
ATOM      8  O   PHE A   2      16.902  12.792  -6.494  1.00  0.00    -0.273 OA
ATOM      9  H   UNL     1      18.216  10.611  -4.554  1.00  0.00     0.164 HD
BRANCH   7  10
ATOM     10  CA  PHE A   2      15.660  11.317  -5.060  1.00  0.00     0.175 C 
BRANCH  10  11
ATOM     11  N   PHE A   2      14.460  11.741  -5.770  1.00  0.00    -0.343 N 
ATOM     12  C   SER A   1      13.917  13.050  -5.637  1.00  0.00     0.239 C 
ATOM     13  O   SER A   1      14.444  13.870  -4.835  1.00  0.00    -0.273 OA
ATOM     14  H   UNL     1      13.875  11.000  -6.213  1.00  0.00     0.164 HD
BRANCH  12  15
ATOM     15  CA  SER A   1      12.663  13.409  -6.388  1.00  0.00     0.167 C 
BRANCH  15  16
ATOM     16  N   SER A   1      12.472  14.861  -6.376  1.00  0.00    -0.318 NA
ATOM     17  H   UNL     1      11.539  15.085  -6.792  1.00  0.00     0.119 HD
ATOM     18  H   UNL     1      13.201  15.316  -6.973  1.00  0.00     0.119 HD
ENDBRANCH  15  16
BRANCH  15  19
ATOM     19  CB  SER A   1      12.687  12.877  -7.844  1.00  0.00     0.184 C 
BRANCH  19  20
ATOM     20  OG  SER A   1      11.437  13.048  -8.451  1.00  0.00    -0.394 OA
ATOM     21  H   UNL     1      10.831  12.369  -8.053  1.00  0.00     0.210 HD
ENDBRANCH  19  20
ENDBRANCH  15  19
ENDBRANCH  12  15
ENDBRANCH  10  11
BRANCH  10  22
ATOM     22  CB  PHE A   2      15.628   9.779  -4.890  1.00  0.00     0.070 C 
BRANCH  22  23
ATOM     23  CG  PHE A   2      14.456   9.290  -4.088  1.00  0.00    -0.045 A 
ATOM     24  CD1 PHE A   2      13.910  10.048  -3.033  1.00  0.00     0.004 A 
ATOM     25  CD2 PHE A   2      13.977   7.991  -4.311  1.00  0.00     0.004 A 
ATOM     26  CE1 PHE A   2      12.872   9.537  -2.263  1.00  0.00     0.000 A 
ATOM     27  CE2 PHE A   2      12.944   7.479  -3.524  1.00  0.00     0.000 A 
ATOM     28  CZ  PHE A   2      12.389   8.254  -2.506  1.00  0.00     0.000 A 
ENDBRANCH  22  23
ENDBRANCH  10  22
ENDBRANCH   7  10
ENDBRANCH   5   6
ENDBRANCH   1   5
BRANCH   3  29
ATOM     29  CA  PHE A   4      21.348   8.746  -8.140  1.00  0.00     0.175 C 
BRANCH  29  30
ATOM     30  C   PHE A   4      22.712   9.204  -8.523  1.00  0.00     0.243 C 
ATOM     31  N   ARG A   5      23.822   8.714  -7.786  1.00  0.00    -0.343 N 
ATOM     32  O   PHE A   4      22.874  10.025  -9.467  1.00  0.00    -0.273 OA
ATOM     33  H   UNL     1      23.669   8.012  -7.026  1.00  0.00     0.164 HD
BRANCH  31  34
ATOM     34  CA  ARG A   5      25.184   9.120  -8.073  1.00  0.00     0.171 C 
BRANCH  34  35
ATOM     35  C   ARG A   5      25.900   7.967  -8.686  1.00  0.00     0.243 C 
ATOM     36  N   ASN A   6      25.914   7.864 -10.103  1.00  0.00    -0.341 N 
ATOM     37  O   ARG A   5      26.448   7.086  -7.970  1.00  0.00    -0.273 OA
ATOM     38  H   UNL     1      25.490   8.647 -10.651  1.00  0.00     0.164 HD
BRANCH  36  39
ATOM     39  CA  ASN A   6      26.543   6.751 -10.805  1.00  0.00     0.201 C 
BRANCH  39  40
ATOM     40  C   ASN A   6      27.993   6.642 -10.415  1.00  0.00     0.326 C 
ATOM     41  O   ASN A   6      28.795   7.578 -10.676  1.00  0.00    -0.250 OA
BRANCH  40  42
ATOM     42  OXT ASN A   6      28.450   5.499  -9.766  1.00  0.00    -0.480 OA
ATOM     43  H   UNL     1      29.422   5.409  -9.496  1.00  0.00     0.296 HD
ENDBRANCH  40  42
ENDBRANCH  39  40
BRANCH  39  44
ATOM     44  CB  ASN A   6      26.429   6.950 -12.325  1.00  0.00     0.136 C 
BRANCH  44  45
ATOM     45  CG  ASN A   6      25.017   7.186 -12.776  1.00  0.00     0.220 C 
ATOM     46  ND2 ASN A   6      24.759   8.093 -13.838  1.00  0.00    -0.370 N 
ATOM     47  OD1 ASN A   6      24.061   6.570 -12.241  1.00  0.00    -0.275 OA
ATOM     48  H   UNL     1      23.780   8.261 -14.159  1.00  0.00     0.159 HD
ATOM     49  H   UNL     1      25.539   8.599 -14.314  1.00  0.00     0.159 HD
ENDBRANCH  44  45
ENDBRANCH  39  44
ENDBRANCH  36  39
ENDBRANCH  34  35
BRANCH  34  50
ATOM     50  CB  ARG A   5      25.862   9.603  -6.796  1.00  0.00     0.037 C 
BRANCH  50  51
ATOM     51  CG  ARG A   5      25.167  10.860  -6.272  1.00  0.00     0.024 C 
BRANCH  51  52
ATOM     52  CD  ARG A   5      25.842  11.390  -5.015  1.00  0.00     0.116 C 
BRANCH  52  53
ATOM     53  NE  ARG A   5      25.378  10.684  -3.823  1.00  0.00    -0.357 N 
ATOM     54  CZ  ARG A   5      25.469  11.279  -2.527  1.00  0.00     0.185 C 
ATOM     55  NH2 ARG A   5      26.106  12.541  -2.350  1.00  0.00    -0.370 N 
ATOM     56  H   UNL     1      24.905   9.757  -3.921  1.00  0.00     0.163 HD
ATOM     57  H   UNL     1      26.084  13.006  -1.415  1.00  0.00     0.159 HD
ATOM     58  H   UNL     1      26.693  12.983  -3.090  1.00  0.00     0.159 HD
BRANCH  54  59
ATOM     59  NH1 ARG A   5      24.959  10.678  -1.500  1.00  0.00    -0.270 NA
ATOM     60  H   UNL     1      24.479   9.755  -1.583  1.00  0.00     0.191 HD
ENDBRANCH  54  59
ENDBRANCH  52  53
ENDBRANCH  51  52
ENDBRANCH  50  51
ENDBRANCH  34  50
ENDBRANCH  31  34
ENDBRANCH  29  30
BRANCH  29  61
ATOM     61  CB  PHE A   4      20.659   7.986  -9.277  1.00  0.00     0.070 C 
BRANCH  61  62
ATOM     62  CG  PHE A   4      21.388   6.750  -9.774  1.00  0.00    -0.045 A 
ATOM     63  CD1 PHE A   4      21.114   6.303 -11.080  1.00  0.00     0.004 A 
ATOM     64  CD2 PHE A   4      22.159   5.923  -8.928  1.00  0.00     0.004 A 
ATOM     65  CE1 PHE A   4      21.621   5.084 -11.540  1.00  0.00     0.000 A 
ATOM     66  CE2 PHE A   4      22.691   4.720  -9.404  1.00  0.00     0.000 A 
ATOM     67  CZ  PHE A   4      22.420   4.300 -10.707  1.00  0.00     0.000 A 
ENDBRANCH  61  62
ENDBRANCH  29  61
ENDBRANCH   3  29
TORSDOF 26
