REMARK SMILES CC(C)C[C@H](NC(=O)[C@H](Cc1ccccc1)NC(=O)[C@@H](N)CO)C(=O)N[C@@H](CO)C(=O)N[C@@H](CCCNC(=N)N)C(=O)NCC(=O)O
REMARK SMILES IDX 24 1 25 2 26 3 5 5 6 6 7 7 8 8 9 10 17 11 18 12 19 13 20 15
REMARK SMILES IDX 21 16 22 19 23 20 10 22 11 23 12 24 16 25 13 26 15 27 14 28
REMARK SMILES IDX 4 29 2 30 1 31 3 32 27 33 30 34 32 35 31 36 33 38 41 39
REMARK SMILES IDX 43 40 42 41 44 43 45 44 46 45 47 46 34 48 35 49 36 50 37 51
REMARK SMILES IDX 38 52 40 53 39 57 28 59 29 60
REMARK H PARENT 26 4 6 9 17 14 21 17 21 18 23 21 32 37 43 42 47 47 37 54 40 55
REMARK H PARENT 40 56 39 58 29 61
ROOT
ATOM      1  C   LEU A   3      20.054  10.082  -6.477  1.00  0.00     0.243 C 
ATOM      2  O   LEU A   3      20.167   9.158  -5.623  1.00  0.00    -0.273 OA
ATOM      3  N   SER A   4      20.565   9.911  -7.787  1.00  0.00    -0.340 N 
ATOM      4  H   UNL     1      20.401  10.652  -8.506  1.00  0.00     0.164 HD
ENDROOT
BRANCH   1   5
ATOM      5  CA  LEU A   3      19.341  11.352  -6.147  1.00  0.00     0.171 C 
BRANCH   5   6
ATOM      6  N   LEU A   3      18.083  11.020  -5.538  1.00  0.00    -0.343 N 
ATOM      7  C   PHE A   2      16.887  11.745  -5.776  1.00  0.00     0.243 C 
ATOM      8  O   PHE A   2      16.905  12.796  -6.474  1.00  0.00    -0.273 OA
ATOM      9  H   UNL     1      18.155  10.386  -4.718  1.00  0.00     0.164 HD
BRANCH   7  10
ATOM     10  CA  PHE A   2      15.652  11.313  -5.056  1.00  0.00     0.175 C 
BRANCH  10  11
ATOM     11  N   PHE A   2      14.455  11.740  -5.767  1.00  0.00    -0.343 N 
ATOM     12  C   SER A   1      13.916  13.050  -5.637  1.00  0.00     0.239 C 
ATOM     13  O   SER A   1      14.444  13.870  -4.836  1.00  0.00    -0.273 OA
ATOM     14  H   UNL     1      13.869  11.000  -6.212  1.00  0.00     0.164 HD
BRANCH  12  15
ATOM     15  CA  SER A   1      12.662  13.410  -6.389  1.00  0.00     0.167 C 
BRANCH  15  16
ATOM     16  N   SER A   1      12.472  14.862  -6.376  1.00  0.00    -0.318 NA
ATOM     17  H   UNL     1      13.202  15.317  -6.972  1.00  0.00     0.119 HD
ATOM     18  H   UNL     1      11.539  15.086  -6.793  1.00  0.00     0.119 HD
ENDBRANCH  15  16
BRANCH  15  19
ATOM     19  CB  SER A   1      12.687  12.878  -7.844  1.00  0.00     0.184 C 
BRANCH  19  20
ATOM     20  OG  SER A   1      11.437  13.048  -8.451  1.00  0.00    -0.394 OA
ATOM     21  H   UNL     1      10.831  12.368  -8.054  1.00  0.00     0.210 HD
ENDBRANCH  19  20
ENDBRANCH  15  19
ENDBRANCH  12  15
ENDBRANCH  10  11
BRANCH  10  22
ATOM     22  CB  PHE A   2      15.610   9.774  -4.880  1.00  0.00     0.070 C 
BRANCH  22  23
ATOM     23  CG  PHE A   2      14.435   9.292  -4.092  1.00  0.00    -0.045 A 
ATOM     24  CD1 PHE A   2      13.898  10.048  -3.033  1.00  0.00     0.004 A 
ATOM     25  CD2 PHE A   2      13.964   7.991  -4.310  1.00  0.00     0.004 A 
ATOM     26  CE1 PHE A   2      12.866   9.535  -2.258  1.00  0.00     0.000 A 
ATOM     27  CE2 PHE A   2      12.937   7.477  -3.520  1.00  0.00     0.000 A 
ATOM     28  CZ  PHE A   2      12.384   8.251  -2.500  1.00  0.00     0.000 A 
ENDBRANCH  22  23
ENDBRANCH  10  22
ENDBRANCH   7  10
ENDBRANCH   5   6
BRANCH   5  29
ATOM     29  CB  LEU A   3      20.164  12.252  -5.216  1.00  0.00     0.038 C 
BRANCH  29  30
ATOM     30  CG  LEU A   3      20.417  11.679  -3.791  1.00  0.00    -0.015 C 
ATOM     31  CD1 LEU A   3      21.819  12.066  -3.316  1.00  0.00     0.007 C 
ATOM     32  CD2 LEU A   3      19.369  12.170  -2.781  1.00  0.00     0.007 C 
ENDBRANCH  29  30
ENDBRANCH   5  29
ENDBRANCH   1   5
BRANCH   3  33
ATOM     33  CA  SER A   4      21.344   8.746  -8.158  1.00  0.00     0.197 C 
BRANCH  33  34
ATOM     34  C   SER A   4      22.711   9.201  -8.534  1.00  0.00     0.245 C 
ATOM     35  N   ARG A   5      23.820   8.707  -7.798  1.00  0.00    -0.342 N 
ATOM     36  O   SER A   4      22.875  10.030  -9.471  1.00  0.00    -0.273 OA
ATOM     37  H   UNL     1      23.666   7.985  -7.057  1.00  0.00     0.164 HD
BRANCH  35  38
ATOM     38  CA  ARG A   5      25.183   9.115  -8.086  1.00  0.00     0.171 C 
BRANCH  38  39
ATOM     39  C   ARG A   5      25.899   7.960  -8.698  1.00  0.00     0.243 C 
ATOM     40  N   GLY A   6      25.894   7.824 -10.118  1.00  0.00    -0.343 N 
ATOM     41  O   ARG A   5      26.456   7.092  -7.973  1.00  0.00    -0.273 OA
ATOM     42  H   UNL     1      25.404   8.539 -10.701  1.00  0.00     0.164 HD
BRANCH  40  43
ATOM     43  CA  GLY A   6      26.553   6.716 -10.794  1.00  0.00     0.238 C 
BRANCH  43  44
ATOM     44  C   GLY A   6      28.001   6.644 -10.415  1.00  0.00     0.322 C 
ATOM     45  O   GLY A   6      28.782   7.588 -10.704  1.00  0.00    -0.250 OA
BRANCH  44  46
ATOM     46  OXT GLY A   6      28.484   5.527  -9.740  1.00  0.00    -0.480 OA
ATOM     47  H   UNL     1      29.460   5.462  -9.474  1.00  0.00     0.296 HD
ENDBRANCH  44  46
ENDBRANCH  43  44
ENDBRANCH  40  43
ENDBRANCH  38  39
BRANCH  38  48
ATOM     48  CB  ARG A   5      25.859   9.601  -6.805  1.00  0.00     0.037 C 
BRANCH  48  49
ATOM     49  CG  ARG A   5      25.163  10.856  -6.276  1.00  0.00     0.024 C 
BRANCH  49  50
ATOM     50  CD  ARG A   5      25.838  11.388  -5.019  1.00  0.00     0.116 C 
BRANCH  50  51
ATOM     51  NE  ARG A   5      25.377  10.683  -3.825  1.00  0.00    -0.357 N 
ATOM     52  CZ  ARG A   5      25.468  11.278  -2.529  1.00  0.00     0.185 C 
ATOM     53  NH2 ARG A   5      26.105  12.541  -2.353  1.00  0.00    -0.370 N 
ATOM     54  H   UNL     1      24.899   9.758  -3.923  1.00  0.00     0.163 HD
ATOM     55  H   UNL     1      26.690  12.983  -3.094  1.00  0.00     0.159 HD
ATOM     56  H   UNL     1      26.082  13.007  -1.418  1.00  0.00     0.159 HD
BRANCH  52  57
ATOM     57  NH1 ARG A   5      24.957  10.679  -1.501  1.00  0.00    -0.270 NA
ATOM     58  H   UNL     1      24.474   9.757  -1.585  1.00  0.00     0.191 HD
ENDBRANCH  52  57
ENDBRANCH  50  51
ENDBRANCH  49  50
ENDBRANCH  48  49
ENDBRANCH  38  48
ENDBRANCH  35  38
ENDBRANCH  33  34
BRANCH  33  59
ATOM     59  CB  SER A   4      20.659   8.001  -9.301  1.00  0.00     0.191 C 
BRANCH  59  60
ATOM     60  OG  SER A   4      21.394   6.863  -9.667  1.00  0.00    -0.394 OA
ATOM     61  H   UNL     1      21.232   6.181  -8.964  1.00  0.00     0.210 HD
ENDBRANCH  59  60
ENDBRANCH  33  59
ENDBRANCH   3  33
TORSDOF 26
