REMARK SMILES CC[C@H](C)[C@H](NC(=O)[C@@H](N)CO)C(=O)N[C@@H](CC(C)C)C(=O)N[C@@H](C)C(=O)N[C@@H](CCCNC(=N)N)C(=O)N[C@@H](CC(N)=O)C(=O)O
REMARK SMILES IDX 21 1 22 2 23 3 16 5 15 6 13 7 14 8 5 10 6 11 7 12 8 13 9 15
REMARK SMILES IDX 10 16 11 19 12 20 3 22 4 23 2 24 1 25 17 26 18 27 19 28
REMARK SMILES IDX 20 29 24 30 25 31 26 32 28 33 27 34 29 36 37 37 39 38 38 39
REMARK SMILES IDX 40 41 45 42 46 43 47 44 41 46 42 47 43 48 44 49 30 52 31 53
REMARK SMILES IDX 32 54 33 55 34 56 36 57 35 61
REMARK H PARENT 23 4 15 9 6 14 10 17 10 18 12 21 28 35 39 40 47 45 43 50 43 51
REMARK H PARENT 33 58 36 59 36 60 35 62
ROOT
ATOM      1  C   LEU A   3      20.061  10.081  -6.441  1.00  0.00     0.243 C 
ATOM      2  O   LEU A   3      20.201   9.181  -5.569  1.00  0.00    -0.273 OA
ATOM      3  N   ALA A   4      20.563   9.903  -7.760  1.00  0.00    -0.343 N 
ATOM      4  H   UNL     1      20.395  10.642  -8.480  1.00  0.00     0.164 HD
ENDROOT
BRANCH   1   5
ATOM      5  CA  LEU A   3      19.328  11.336  -6.129  1.00  0.00     0.171 C 
BRANCH   5   6
ATOM      6  N   LEU A   3      18.082  11.024  -5.485  1.00  0.00    -0.343 N 
ATOM      7  C   ILE A   2      16.880  11.745  -5.728  1.00  0.00     0.243 C 
ATOM      8  O   ILE A   2      16.896  12.787  -6.442  1.00  0.00    -0.273 OA
ATOM      9  H   UNL     1      18.149  10.370  -4.683  1.00  0.00     0.164 HD
BRANCH   7  10
ATOM     10  CA  ILE A   2      15.620  11.274  -5.050  1.00  0.00     0.174 C 
BRANCH  10  11
ATOM     11  N   ILE A   2      14.441  11.730  -5.773  1.00  0.00    -0.343 N 
ATOM     12  C   SER A   1      13.914  13.045  -5.638  1.00  0.00     0.239 C 
ATOM     13  O   SER A   1      14.453  13.860  -4.839  1.00  0.00    -0.273 OA
ATOM     14  H   UNL     1      13.848  11.012  -6.237  1.00  0.00     0.164 HD
BRANCH  12  15
ATOM     15  CA  SER A   1      12.655  13.413  -6.387  1.00  0.00     0.167 C 
BRANCH  15  16
ATOM     16  N   SER A   1      12.471  14.866  -6.379  1.00  0.00    -0.318 NA
ATOM     17  H   UNL     1      11.567  15.093  -6.852  1.00  0.00     0.119 HD
ATOM     18  H   UNL     1      12.341  15.178  -5.388  1.00  0.00     0.119 HD
ENDBRANCH  15  16
BRANCH  15  19
ATOM     19  CB  SER A   1      12.696  12.903  -7.848  1.00  0.00     0.184 C 
BRANCH  19  20
ATOM     20  OG  SER A   1      11.437  13.039  -8.447  1.00  0.00    -0.394 OA
ATOM     21  H   UNL     1      11.442  13.897  -8.947  1.00  0.00     0.210 HD
ENDBRANCH  19  20
ENDBRANCH  15  19
ENDBRANCH  12  15
ENDBRANCH  10  11
BRANCH  10  22
ATOM     22  CB  ILE A   2      15.584   9.718  -4.901  1.00  0.00     0.018 C 
ATOM     23  CG1 ILE A   2      14.381   9.271  -4.073  1.00  0.00     0.010 C 
BRANCH  22  24
ATOM     24  CG2 ILE A   2      15.643   8.966  -6.262  1.00  0.00     0.002 C 
ATOM     25  CD1 ILE A   2      16.231   7.562  -6.125  1.00  0.00     0.004 C 
ENDBRANCH  22  24
ENDBRANCH  10  22
ENDBRANCH   7  10
ENDBRANCH   5   6
BRANCH   5  26
ATOM     26  CB  LEU A   3      20.154  12.340  -5.314  1.00  0.00     0.038 C 
BRANCH  26  27
ATOM     27  CG  LEU A   3      20.432  12.205  -3.790  1.00  0.00    -0.015 C 
ATOM     28  CD1 LEU A   3      21.822  11.747  -3.389  1.00  0.00     0.007 C 
ATOM     29  CD2 LEU A   3      19.302  11.892  -2.821  1.00  0.00     0.007 C 
ENDBRANCH  26  27
ENDBRANCH   5  26
ENDBRANCH   1   5
BRANCH   3  30
ATOM     30  CA  ALA A   4      21.341   8.742  -8.143  1.00  0.00     0.168 C 
ATOM     31  CB  ALA A   4      20.660   8.007  -9.289  1.00  0.00     0.041 C 
BRANCH  30  32
ATOM     32  C   ALA A   4      22.708   9.196  -8.526  1.00  0.00     0.242 C 
ATOM     33  N   ARG A   5      23.818   8.705  -7.789  1.00  0.00    -0.343 N 
ATOM     34  O   ALA A   4      22.871  10.024  -9.464  1.00  0.00    -0.273 OA
ATOM     35  H   UNL     1      23.665   7.983  -7.047  1.00  0.00     0.164 HD
BRANCH  33  36
ATOM     36  CA  ARG A   5      25.180   9.117  -8.072  1.00  0.00     0.171 C 
BRANCH  36  37
ATOM     37  C   ARG A   5      25.901   7.968  -8.686  1.00  0.00     0.243 C 
ATOM     38  N   ASN A   6      25.917   7.866 -10.103  1.00  0.00    -0.341 N 
ATOM     39  O   ARG A   5      26.449   7.087  -7.970  1.00  0.00    -0.273 OA
ATOM     40  H   UNL     1      25.498   8.652 -10.651  1.00  0.00     0.164 HD
BRANCH  38  41
ATOM     41  CA  ASN A   6      26.542   6.750 -10.803  1.00  0.00     0.201 C 
BRANCH  41  42
ATOM     42  C   ASN A   6      27.996   6.641 -10.415  1.00  0.00     0.326 C 
ATOM     43  O   ASN A   6      28.793   7.580 -10.679  1.00  0.00    -0.250 OA
BRANCH  42  44
ATOM     44  OXT ASN A   6      28.475   5.505  -9.768  1.00  0.00    -0.480 OA
ATOM     45  H   UNL     1      27.865   4.730  -9.539  1.00  0.00     0.296 HD
ENDBRANCH  42  44
ENDBRANCH  41  42
BRANCH  41  46
ATOM     46  CB  ASN A   6      26.424   6.946 -12.323  1.00  0.00     0.136 C 
BRANCH  46  47
ATOM     47  CG  ASN A   6      25.009   7.181 -12.772  1.00  0.00     0.220 C 
ATOM     48  ND2 ASN A   6      24.754   8.089 -13.834  1.00  0.00    -0.370 N 
ATOM     49  OD1 ASN A   6      24.051   6.563 -12.238  1.00  0.00    -0.275 OA
ATOM     50  H   UNL     1      23.775   8.258 -14.157  1.00  0.00     0.159 HD
ATOM     51  H   UNL     1      25.534   8.596 -14.309  1.00  0.00     0.159 HD
ENDBRANCH  46  47
ENDBRANCH  41  46
ENDBRANCH  38  41
ENDBRANCH  36  37
BRANCH  36  52
ATOM     52  CB  ARG A   5      25.856   9.601  -6.793  1.00  0.00     0.037 C 
BRANCH  52  53
ATOM     53  CG  ARG A   5      25.161  10.858  -6.270  1.00  0.00     0.024 C 
BRANCH  53  54
ATOM     54  CD  ARG A   5      25.837  11.390  -5.014  1.00  0.00     0.116 C 
BRANCH  54  55
ATOM     55  NE  ARG A   5      25.375  10.686  -3.820  1.00  0.00    -0.357 N 
ATOM     56  CZ  ARG A   5      25.468  11.281  -2.526  1.00  0.00     0.185 C 
ATOM     57  NH2 ARG A   5      26.108  12.546  -2.352  1.00  0.00    -0.370 N 
ATOM     58  H   UNL     1      24.889   9.765  -3.911  1.00  0.00     0.163 HD
ATOM     59  H   UNL     1      26.082  13.023  -1.423  1.00  0.00     0.159 HD
ATOM     60  H   UNL     1      26.696  12.982  -3.094  1.00  0.00     0.159 HD
BRANCH  56  61
ATOM     61  NH1 ARG A   5      24.954  10.672  -1.506  1.00  0.00    -0.270 NA
ATOM     62  H   UNL     1      24.996  11.076  -0.544  1.00  0.00     0.191 HD
ENDBRANCH  56  61
ENDBRANCH  54  55
ENDBRANCH  53  54
ENDBRANCH  52  53
ENDBRANCH  36  52
ENDBRANCH  33  36
ENDBRANCH  30  32
ENDBRANCH   3  30
TORSDOF 26
