REMARK SMILES CC(C)[C@H](NC(=O)[C@H](CCC(N)=O)NC(=O)[C@H](Cc1ccccc1)NC(=O)[C@@H](N)CO)C(=O)N[C@@H](CCCNC(=N)N)C(=O)N[C@@H](CC(N)=O)C(=O)O
REMARK SMILES IDX 6 1 7 2 5 3 8 5 14 6 15 7 16 8 17 10 25 11 26 12 27 13 28 15
REMARK SMILES IDX 29 16 30 19 31 20 18 22 19 23 20 24 24 25 21 26 23 27 22 28
REMARK SMILES IDX 9 29 10 30 11 31 12 32 13 33 4 36 32 37 34 38 33 39 35 41
REMARK SMILES IDX 43 42 45 43 44 44 46 46 51 47 52 48 53 49 47 51 48 52 49 53
REMARK SMILES IDX 50 54 36 57 37 58 38 59 39 60 40 61 42 62 41 66 2 68 1 69
REMARK SMILES IDX 3 70
REMARK H PARENT 5 4 14 9 25 14 29 17 29 18 31 21 12 34 12 35 34 40 45 45 53 50
REMARK H PARENT 49 55 49 56 39 63 42 64 42 65 41 67
ROOT
ATOM      1  C   GLN A   3      20.043  10.081  -6.469  1.00  0.00     0.243 C 
ATOM      2  O   GLN A   3      20.159   9.163  -5.612  1.00  0.00    -0.273 OA
ATOM      3  N   VAL A   4      20.572   9.918  -7.775  1.00  0.00    -0.342 N 
ATOM      4  H   UNL     1      20.415  10.663  -8.492  1.00  0.00     0.164 HD
ENDROOT
BRANCH   1   5
ATOM      5  CA  GLN A   3      19.339  11.356  -6.141  1.00  0.00     0.171 C 
BRANCH   5   6
ATOM      6  N   GLN A   3      18.086  11.047  -5.501  1.00  0.00    -0.342 N 
ATOM      7  C   PHE A   2      16.885  11.750  -5.774  1.00  0.00     0.243 C 
ATOM      8  O   PHE A   2      16.901  12.792  -6.484  1.00  0.00    -0.273 OA
ATOM      9  H   UNL     1      18.159  10.504  -4.617  1.00  0.00     0.164 HD
BRANCH   7  10
ATOM     10  CA  PHE A   2      15.649  11.313  -5.060  1.00  0.00     0.175 C 
BRANCH  10  11
ATOM     11  N   PHE A   2      14.452  11.740  -5.769  1.00  0.00    -0.343 N 
ATOM     12  C   SER A   1      13.913  13.050  -5.637  1.00  0.00     0.239 C 
ATOM     13  O   SER A   1      14.447  13.869  -4.840  1.00  0.00    -0.273 OA
ATOM     14  H   UNL     1      13.860  10.999  -6.206  1.00  0.00     0.164 HD
BRANCH  12  15
ATOM     15  CA  SER A   1      12.654  13.409  -6.387  1.00  0.00     0.167 C 
BRANCH  15  16
ATOM     16  N   SER A   1      12.467  14.862  -6.384  1.00  0.00    -0.318 NA
ATOM     17  H   UNL     1      12.301  15.172  -5.399  1.00  0.00     0.119 HD
ATOM     18  H   UNL     1      11.582  15.088  -6.895  1.00  0.00     0.119 HD
ENDBRANCH  15  16
BRANCH  15  19
ATOM     19  CB  SER A   1      12.698  12.895  -7.844  1.00  0.00     0.184 C 
BRANCH  19  20
ATOM     20  OG  SER A   1      11.440  13.041  -8.441  1.00  0.00    -0.394 OA
ATOM     21  H   UNL     1      11.549  12.779  -9.392  1.00  0.00     0.210 HD
ENDBRANCH  19  20
ENDBRANCH  15  19
ENDBRANCH  12  15
ENDBRANCH  10  11
BRANCH  10  22
ATOM     22  CB  PHE A   2      15.612   9.773  -4.891  1.00  0.00     0.070 C 
BRANCH  22  23
ATOM     23  CG  PHE A   2      14.443   9.289  -4.090  1.00  0.00    -0.045 A 
ATOM     24  CD1 PHE A   2      13.903  10.046  -3.033  1.00  0.00     0.004 A 
ATOM     25  CD2 PHE A   2      13.968   7.989  -4.310  1.00  0.00     0.004 A 
ATOM     26  CE1 PHE A   2      12.869   9.535  -2.260  1.00  0.00     0.000 A 
ATOM     27  CE2 PHE A   2      12.939   7.477  -3.521  1.00  0.00     0.000 A 
ATOM     28  CZ  PHE A   2      12.386   8.252  -2.502  1.00  0.00     0.000 A 
ENDBRANCH  22  23
ENDBRANCH  10  22
ENDBRANCH   7  10
ENDBRANCH   5   6
BRANCH   5  29
ATOM     29  CB  GLN A   3      20.190  12.254  -5.238  1.00  0.00     0.045 C 
BRANCH  29  30
ATOM     30  CG  GLN A   3      20.401  11.720  -3.805  1.00  0.00     0.102 C 
BRANCH  30  31
ATOM     31  CD  GLN A   3      21.774  12.051  -3.320  1.00  0.00     0.217 C 
ATOM     32  NE2 GLN A   3      22.159  13.403  -3.075  1.00  0.00    -0.370 N 
ATOM     33  OE1 GLN A   3      22.598  11.120  -3.132  1.00  0.00    -0.275 OA
ATOM     34  H   UNL     1      23.125  13.624  -2.746  1.00  0.00     0.159 HD
ATOM     35  H   UNL     1      21.482  14.184  -3.225  1.00  0.00     0.159 HD
ENDBRANCH  30  31
ENDBRANCH  29  30
ENDBRANCH   5  29
ENDBRANCH   1   5
BRANCH   3  36
ATOM     36  CA  VAL A   4      21.340   8.746  -8.154  1.00  0.00     0.174 C 
BRANCH  36  37
ATOM     37  C   VAL A   4      22.710   9.206  -8.525  1.00  0.00     0.243 C 
ATOM     38  N   ARG A   5      23.818   8.708  -7.789  1.00  0.00    -0.343 N 
ATOM     39  O   VAL A   4      22.876  10.031  -9.465  1.00  0.00    -0.273 OA
ATOM     40  H   UNL     1      23.663   7.983  -7.052  1.00  0.00     0.164 HD
BRANCH  38  41
ATOM     41  CA  ARG A   5      25.181   9.118  -8.071  1.00  0.00     0.171 C 
BRANCH  41  42
ATOM     42  C   ARG A   5      25.901   7.968  -8.685  1.00  0.00     0.243 C 
ATOM     43  N   ASN A   6      25.914   7.865 -10.102  1.00  0.00    -0.341 N 
ATOM     44  O   ARG A   5      26.449   7.087  -7.970  1.00  0.00    -0.273 OA
ATOM     45  H   UNL     1      25.491   8.649 -10.651  1.00  0.00     0.164 HD
BRANCH  43  46
ATOM     46  CA  ASN A   6      26.542   6.751 -10.804  1.00  0.00     0.201 C 
BRANCH  46  47
ATOM     47  C   ASN A   6      27.993   6.642 -10.416  1.00  0.00     0.326 C 
ATOM     48  O   ASN A   6      28.794   7.579 -10.677  1.00  0.00    -0.250 OA
BRANCH  47  49
ATOM     49  OXT ASN A   6      28.452   5.498  -9.770  1.00  0.00    -0.480 OA
ATOM     50  H   UNL     1      29.424   5.408  -9.502  1.00  0.00     0.296 HD
ENDBRANCH  47  49
ENDBRANCH  46  47
BRANCH  46  51
ATOM     51  CB  ASN A   6      26.425   6.947 -12.323  1.00  0.00     0.136 C 
BRANCH  51  52
ATOM     52  CG  ASN A   6      25.010   7.181 -12.773  1.00  0.00     0.220 C 
ATOM     53  ND2 ASN A   6      24.754   8.091 -13.834  1.00  0.00    -0.370 N 
ATOM     54  OD1 ASN A   6      24.053   6.559 -12.242  1.00  0.00    -0.275 OA
ATOM     55  H   UNL     1      23.775   8.258 -14.157  1.00  0.00     0.159 HD
ATOM     56  H   UNL     1      25.533   8.599 -14.307  1.00  0.00     0.159 HD
ENDBRANCH  51  52
ENDBRANCH  46  51
ENDBRANCH  43  46
ENDBRANCH  41  42
BRANCH  41  57
ATOM     57  CB  ARG A   5      25.857   9.601  -6.793  1.00  0.00     0.037 C 
BRANCH  57  58
ATOM     58  CG  ARG A   5      25.160  10.855  -6.266  1.00  0.00     0.024 C 
BRANCH  58  59
ATOM     59  CD  ARG A   5      25.841  11.392  -5.015  1.00  0.00     0.116 C 
BRANCH  59  60
ATOM     60  NE  ARG A   5      25.400  10.681  -3.817  1.00  0.00    -0.357 N 
ATOM     61  CZ  ARG A   5      25.488  11.279  -2.524  1.00  0.00     0.185 C 
ATOM     62  NH2 ARG A   5      26.110  12.552  -2.353  1.00  0.00    -0.370 N 
ATOM     63  H   UNL     1      24.947   9.742  -3.905  1.00  0.00     0.163 HD
ATOM     64  H   UNL     1      26.073  13.033  -1.427  1.00  0.00     0.159 HD
ATOM     65  H   UNL     1      26.695  12.991  -3.096  1.00  0.00     0.159 HD
BRANCH  61  66
ATOM     66  NH1 ARG A   5      24.977  10.668  -1.502  1.00  0.00    -0.270 NA
ATOM     67  H   UNL     1      25.013  11.076  -0.542  1.00  0.00     0.191 HD
ENDBRANCH  61  66
ENDBRANCH  59  60
ENDBRANCH  58  59
ENDBRANCH  57  58
ENDBRANCH  41  57
ENDBRANCH  38  41
ENDBRANCH  36  37
BRANCH  36  68
ATOM     68  CB  VAL A   4      20.644   8.000  -9.310  1.00  0.00     0.015 C 
ATOM     69  CG1 VAL A   4      21.451   6.771  -9.754  1.00  0.00     0.010 C 
ATOM     70  CG2 VAL A   4      19.224   7.565  -8.912  1.00  0.00     0.010 C 
ENDBRANCH  36  68
ENDBRANCH   3  36
TORSDOF 28
