REMARK SMILES CC(C)C[C@H](NC(=O)[C@H](C)NC(=O)[C@@H](N)CO)C(=O)N[C@@H](Cc1ccccc1)C(=O)N[C@@H](CCCNC(=N)N)C(=O)N[C@@H](CC(N)=O)C(=O)O
REMARK SMILES IDX 18 1 19 2 20 3 5 5 6 6 7 7 8 8 9 10 10 11 11 12 12 13 13 14
REMARK SMILES IDX 14 16 15 17 16 20 17 21 4 23 2 24 1 25 3 26 21 27 29 28
REMARK SMILES IDX 31 29 30 30 32 32 40 33 42 34 41 35 43 37 48 38 49 39 50 40
REMARK SMILES IDX 44 42 45 43 46 44 47 45 33 48 34 49 35 50 36 51 37 52 39 53
REMARK SMILES IDX 38 57 22 59 23 60 24 61 28 62 25 63 27 64 26 65
REMARK H PARENT 20 4 6 9 11 15 15 18 15 19 17 22 31 31 42 36 50 41 46 46 46 47
REMARK H PARENT 36 54 39 55 39 56 38 58
ROOT
ATOM      1  C   LEU A   3       1.742   0.269  -0.531  1.00  0.00     0.243 C 
ATOM      2  O   LEU A   3       1.422  -0.063   0.644  1.00  0.00    -0.273 OA
ATOM      3  N   PHE A   4       0.791   0.928  -1.382  1.00  0.00    -0.342 N 
ATOM      4  H   UNL     1       1.121   1.240  -2.320  1.00  0.00     0.164 HD
ENDROOT
BRANCH   1   5
ATOM      5  CA  LEU A   3       3.107  -0.075  -1.070  1.00  0.00     0.171 C 
BRANCH   5   6
ATOM      6  N   LEU A   3       4.035  -0.326   0.040  1.00  0.00    -0.343 N 
ATOM      7  C   ALA A   2       4.606   0.737   0.814  1.00  0.00     0.242 C 
ATOM      8  O   ALA A   2       4.272   1.934   0.594  1.00  0.00    -0.273 OA
ATOM      9  H   UNL     1       4.255  -1.311   0.314  1.00  0.00     0.164 HD
BRANCH   7  10
ATOM     10  CA  ALA A   2       5.559   0.415   1.935  1.00  0.00     0.168 C 
ATOM     11  CB  ALA A   2       4.773   0.184   3.228  1.00  0.00     0.041 C 
BRANCH  10  12
ATOM     12  N   ALA A   2       6.541   1.491   2.110  1.00  0.00    -0.343 N 
ATOM     13  C   SER A   1       7.537   1.785   1.115  1.00  0.00     0.239 C 
ATOM     14  O   SER A   1       7.574   1.115   0.046  1.00  0.00    -0.273 OA
ATOM     15  H   UNL     1       6.559   2.018   3.011  1.00  0.00     0.164 HD
BRANCH  13  16
ATOM     16  CA  SER A   1       8.578   2.853   1.343  1.00  0.00     0.167 C 
BRANCH  16  17
ATOM     17  N   SER A   1       7.970   4.066   1.903  1.00  0.00    -0.318 NA
ATOM     18  H   UNL     1       7.795   3.944   2.927  1.00  0.00     0.119 HD
ATOM     19  H   UNL     1       8.656   4.849   1.811  1.00  0.00     0.119 HD
ENDBRANCH  16  17
BRANCH  16  20
ATOM     20  CB  SER A   1       9.732   2.334   2.220  1.00  0.00     0.184 C 
BRANCH  20  21
ATOM     21  OG  SER A   1       9.258   1.894   3.465  1.00  0.00    -0.394 OA
ATOM     22  H   UNL     1      10.052   1.555   3.958  1.00  0.00     0.210 HD
ENDBRANCH  20  21
ENDBRANCH  16  20
ENDBRANCH  13  16
ENDBRANCH  10  12
ENDBRANCH   7  10
ENDBRANCH   5   6
BRANCH   5  23
ATOM     23  CB  LEU A   3       3.008  -1.307  -2.001  1.00  0.00     0.038 C 
BRANCH  23  24
ATOM     24  CG  LEU A   3       4.173  -1.410  -3.017  1.00  0.00    -0.015 C 
ATOM     25  CD1 LEU A   3       3.891  -2.534  -4.023  1.00  0.00     0.007 C 
ATOM     26  CD2 LEU A   3       5.528  -1.652  -2.336  1.00  0.00     0.007 C 
ENDBRANCH  23  24
ENDBRANCH   5  23
ENDBRANCH   1   5
BRANCH   3  27
ATOM     27  CA  PHE A   4      -0.568   1.261  -0.937  1.00  0.00     0.175 C 
BRANCH  27  28
ATOM     28  C   PHE A   4      -1.330   0.024  -0.529  1.00  0.00     0.243 C 
ATOM     29  N   ARG A   5      -2.403   0.131   0.416  1.00  0.00    -0.343 N 
ATOM     30  O   PHE A   4      -1.054  -1.089  -1.060  1.00  0.00    -0.273 OA
ATOM     31  H   UNL     1      -2.757   1.088   0.640  1.00  0.00     0.164 HD
BRANCH  29  32
ATOM     32  CA  ARG A   5      -3.109  -1.035   0.960  1.00  0.00     0.171 C 
BRANCH  32  33
ATOM     33  C   ARG A   5      -4.491  -1.158   0.368  1.00  0.00     0.243 C 
ATOM     34  N   ASN A   6      -5.237  -2.368   0.552  1.00  0.00    -0.341 N 
ATOM     35  O   ARG A   5      -4.981  -0.209  -0.304  1.00  0.00    -0.273 OA
ATOM     36  H   UNL     1      -4.811  -3.135   1.119  1.00  0.00     0.164 HD
BRANCH  34  37
ATOM     37  CA  ASN A   6      -6.613  -2.522   0.070  1.00  0.00     0.201 C 
BRANCH  37  38
ATOM     38  C   ASN A   6      -7.568  -1.943   1.072  1.00  0.00     0.326 C 
ATOM     39  O   ASN A   6      -7.454  -2.224   2.296  1.00  0.00    -0.250 OA
BRANCH  38  40
ATOM     40  OXT ASN A   6      -8.606  -1.120   0.643  1.00  0.00    -0.480 OA
ATOM     41  H   UNL     1      -9.264  -0.729   1.306  1.00  0.00     0.296 HD
ENDBRANCH  38  40
ENDBRANCH  37  38
BRANCH  37  42
ATOM     42  CB  ASN A   6      -6.941  -4.005  -0.175  1.00  0.00     0.136 C 
BRANCH  42  43
ATOM     43  CG  ASN A   6      -6.062  -4.578  -1.249  1.00  0.00     0.220 C 
ATOM     44  ND2 ASN A   6      -6.346  -4.330  -2.625  1.00  0.00    -0.370 N 
ATOM     45  OD1 ASN A   6      -5.043  -5.249  -0.933  1.00  0.00    -0.275 OA
ATOM     46  H   UNL     1      -7.177  -3.761  -2.903  1.00  0.00     0.159 HD
ATOM     47  H   UNL     1      -5.708  -4.690  -3.370  1.00  0.00     0.159 HD
ENDBRANCH  42  43
ENDBRANCH  37  42
ENDBRANCH  34  37
ENDBRANCH  32  33
BRANCH  32  48
ATOM     48  CB  ARG A   5      -3.117  -1.021   2.509  1.00  0.00     0.037 C 
BRANCH  48  49
ATOM     49  CG  ARG A   5      -3.542   0.293   3.197  1.00  0.00     0.024 C 
BRANCH  49  50
ATOM     50  CD  ARG A   5      -5.017   0.655   2.977  1.00  0.00     0.116 C 
BRANCH  50  51
ATOM     51  NE  ARG A   5      -5.416   1.743   3.871  1.00  0.00    -0.357 N 
ATOM     52  CZ  ARG A   5      -5.041   3.123   3.708  1.00  0.00     0.185 C 
ATOM     53  NH2 ARG A   5      -5.423   4.072   4.704  1.00  0.00    -0.370 N 
ATOM     54  H   UNL     1      -6.035   1.497   4.677  1.00  0.00     0.163 HD
ATOM     55  H   UNL     1      -5.158   5.078   4.608  1.00  0.00     0.159 HD
ATOM     56  H   UNL     1      -5.975   3.776   5.539  1.00  0.00     0.159 HD
BRANCH  52  57
ATOM     57  NH1 ARG A   5      -4.384   3.535   2.667  1.00  0.00    -0.270 NA
ATOM     58  H   UNL     1      -4.079   2.914   1.888  1.00  0.00     0.191 HD
ENDBRANCH  52  57
ENDBRANCH  50  51
ENDBRANCH  49  50
ENDBRANCH  48  49
ENDBRANCH  32  48
ENDBRANCH  29  32
ENDBRANCH  27  28
BRANCH  27  59
ATOM     59  CB  PHE A   4      -1.337   2.065  -2.011  1.00  0.00     0.070 C 
BRANCH  59  60
ATOM     60  CG  PHE A   4      -1.624   1.276  -3.269  1.00  0.00    -0.045 A 
ATOM     61  CD1 PHE A   4      -2.767   0.460  -3.348  1.00  0.00     0.004 A 
ATOM     62  CD2 PHE A   4      -0.757   1.346  -4.371  1.00  0.00     0.004 A 
ATOM     63  CE1 PHE A   4      -3.025  -0.286  -4.501  1.00  0.00     0.000 A 
ATOM     64  CE2 PHE A   4      -1.017   0.597  -5.523  1.00  0.00     0.000 A 
ATOM     65  CZ  PHE A   4      -2.149  -0.219  -5.588  1.00  0.00     0.000 A 
ENDBRANCH  59  60
ENDBRANCH  27  59
ENDBRANCH   3  27
TORSDOF 26
