REMARK SMILES CC(C)[C@H](NC(=O)[C@H](Cc1ccccc1)NC(=O)[C@@H](N)CO)C(=O)N[C@@H](Cc1c[nH]cn1)C(=O)N[C@@H](CCCNC(=N)N)C(=O)N[C@@H](CC(N)=O)C(=O)O
REMARK SMILES IDX 23 1 24 2 25 3 4 5 5 6 6 7 7 8 8 10 16 11 17 12 18 13 19 15
REMARK SMILES IDX 20 16 21 19 22 20 9 22 10 23 11 24 15 25 12 26 14 27 13 28
REMARK SMILES IDX 2 29 1 30 3 31 26 32 33 33 35 34 34 35 36 37 44 38 46 39
REMARK SMILES IDX 45 40 47 42 52 43 53 44 54 45 48 47 49 48 50 49 51 50 37 53
REMARK SMILES IDX 38 54 39 55 40 56 41 57 43 58 42 62 27 64 28 65 32 66 29 67
REMARK SMILES IDX 31 68 30 69
REMARK H PARENT 25 4 5 9 16 14 20 17 20 18 22 21 35 36 46 41 54 46 50 51 50 52
REMARK H PARENT 40 59 43 60 43 61 42 63 30 70
ROOT
ATOM      1  C   VAL A   3      20.054  10.087  -6.465  1.00  0.00     0.243 C 
ATOM      2  O   VAL A   3      20.171   9.174  -5.601  1.00  0.00    -0.273 OA
ATOM      3  N   HIS A   4      20.563   9.909  -7.778  1.00  0.00    -0.342 N 
ATOM      4  H   UNL     1      20.398  10.649  -8.499  1.00  0.00     0.164 HD
ENDROOT
BRANCH   1   5
ATOM      5  CA  VAL A   3      19.347  11.362  -6.139  1.00  0.00     0.174 C 
BRANCH   5   6
ATOM      6  N   VAL A   3      18.087  11.032  -5.524  1.00  0.00    -0.342 N 
ATOM      7  C   PHE A   2      16.887  11.747  -5.775  1.00  0.00     0.243 C 
ATOM      8  O   PHE A   2      16.904  12.795  -6.479  1.00  0.00    -0.273 OA
ATOM      9  H   UNL     1      18.157  10.435  -4.677  1.00  0.00     0.164 HD
BRANCH   7  10
ATOM     10  CA  PHE A   2      15.652  11.313  -5.058  1.00  0.00     0.175 C 
BRANCH  10  11
ATOM     11  N   PHE A   2      14.455  11.740  -5.768  1.00  0.00    -0.343 N 
ATOM     12  C   SER A   1      13.914  13.049  -5.637  1.00  0.00     0.239 C 
ATOM     13  O   SER A   1      14.441  13.870  -4.837  1.00  0.00    -0.273 OA
ATOM     14  H   UNL     1      13.869  10.999  -6.212  1.00  0.00     0.164 HD
BRANCH  12  15
ATOM     15  CA  SER A   1      12.661  13.409  -6.393  1.00  0.00     0.167 C 
BRANCH  15  16
ATOM     16  N   SER A   1      12.471  14.861  -6.379  1.00  0.00    -0.318 NA
ATOM     17  H   UNL     1      11.538  15.087  -6.794  1.00  0.00     0.119 HD
ATOM     18  H   UNL     1      13.201  15.316  -6.976  1.00  0.00     0.119 HD
ENDBRANCH  15  16
BRANCH  15  19
ATOM     19  CB  SER A   1      12.691  12.879  -7.846  1.00  0.00     0.184 C 
BRANCH  19  20
ATOM     20  OG  SER A   1      11.436  13.052  -8.443  1.00  0.00    -0.394 OA
ATOM     21  H   UNL     1      11.538  12.777  -9.391  1.00  0.00     0.210 HD
ENDBRANCH  19  20
ENDBRANCH  15  19
ENDBRANCH  12  15
ENDBRANCH  10  11
BRANCH  10  22
ATOM     22  CB  PHE A   2      15.611   9.773  -4.885  1.00  0.00     0.070 C 
BRANCH  22  23
ATOM     23  CG  PHE A   2      14.439   9.291  -4.091  1.00  0.00    -0.045 A 
ATOM     24  CD1 PHE A   2      13.900  10.047  -3.033  1.00  0.00     0.004 A 
ATOM     25  CD2 PHE A   2      13.966   7.990  -4.310  1.00  0.00     0.004 A 
ATOM     26  CE1 PHE A   2      12.867   9.536  -2.259  1.00  0.00     0.000 A 
ATOM     27  CE2 PHE A   2      12.938   7.477  -3.520  1.00  0.00     0.000 A 
ATOM     28  CZ  PHE A   2      12.385   8.252  -2.501  1.00  0.00     0.000 A 
ENDBRANCH  22  23
ENDBRANCH  10  22
ENDBRANCH   7  10
ENDBRANCH   5   6
BRANCH   5  29
ATOM     29  CB  VAL A   3      20.158  12.285  -5.202  1.00  0.00     0.015 C 
ATOM     30  CG1 VAL A   3      20.448  11.683  -3.812  1.00  0.00     0.010 C 
ATOM     31  CG2 VAL A   3      21.462  12.745  -5.870  1.00  0.00     0.010 C 
ENDBRANCH   5  29
ENDBRANCH   1   5
BRANCH   3  32
ATOM     32  CA  HIS A   4      21.347   8.746  -8.149  1.00  0.00     0.177 C 
BRANCH  32  33
ATOM     33  C   HIS A   4      22.713   9.206  -8.525  1.00  0.00     0.243 C 
ATOM     34  N   ARG A   5      23.822   8.712  -7.787  1.00  0.00    -0.343 N 
ATOM     35  O   HIS A   4      22.877  10.030  -9.466  1.00  0.00    -0.273 OA
ATOM     36  H   UNL     1      23.667   7.998  -7.039  1.00  0.00     0.164 HD
BRANCH  34  37
ATOM     37  CA  ARG A   5      25.185   9.118  -8.073  1.00  0.00     0.171 C 
BRANCH  37  38
ATOM     38  C   ARG A   5      25.901   7.967  -8.686  1.00  0.00     0.243 C 
ATOM     39  N   ASN A   6      25.914   7.864 -10.103  1.00  0.00    -0.341 N 
ATOM     40  O   ARG A   5      26.449   7.085  -7.971  1.00  0.00    -0.273 OA
ATOM     41  H   UNL     1      25.490   8.647 -10.651  1.00  0.00     0.164 HD
BRANCH  39  42
ATOM     42  CA  ASN A   6      26.543   6.751 -10.805  1.00  0.00     0.201 C 
BRANCH  42  43
ATOM     43  C   ASN A   6      27.993   6.642 -10.416  1.00  0.00     0.326 C 
ATOM     44  O   ASN A   6      28.795   7.578 -10.676  1.00  0.00    -0.250 OA
BRANCH  43  45
ATOM     45  OXT ASN A   6      28.451   5.498  -9.768  1.00  0.00    -0.480 OA
ATOM     46  H   UNL     1      29.423   5.408  -9.499  1.00  0.00     0.296 HD
ENDBRANCH  43  45
ENDBRANCH  42  43
BRANCH  42  47
ATOM     47  CB  ASN A   6      26.428   6.949 -12.325  1.00  0.00     0.136 C 
BRANCH  47  48
ATOM     48  CG  ASN A   6      25.015   7.185 -12.776  1.00  0.00     0.220 C 
ATOM     49  ND2 ASN A   6      24.759   8.093 -13.837  1.00  0.00    -0.370 N 
ATOM     50  OD1 ASN A   6      24.058   6.566 -12.244  1.00  0.00    -0.275 OA
ATOM     51  H   UNL     1      25.538   8.601 -14.311  1.00  0.00     0.159 HD
ATOM     52  H   UNL     1      23.780   8.261 -14.160  1.00  0.00     0.159 HD
ENDBRANCH  47  48
ENDBRANCH  42  47
ENDBRANCH  39  42
ENDBRANCH  37  38
BRANCH  37  53
ATOM     53  CB  ARG A   5      25.864   9.602  -6.796  1.00  0.00     0.037 C 
BRANCH  53  54
ATOM     54  CG  ARG A   5      25.165  10.852  -6.268  1.00  0.00     0.024 C 
BRANCH  54  55
ATOM     55  CD  ARG A   5      25.840  11.388  -5.014  1.00  0.00     0.116 C 
BRANCH  55  56
ATOM     56  NE  ARG A   5      25.379  10.685  -3.819  1.00  0.00    -0.357 N 
ATOM     57  CZ  ARG A   5      25.469  11.282  -2.526  1.00  0.00     0.185 C 
ATOM     58  NH2 ARG A   5      26.108  12.547  -2.352  1.00  0.00    -0.370 N 
ATOM     59  H   UNL     1      24.902   9.759  -3.909  1.00  0.00     0.163 HD
ATOM     60  H   UNL     1      26.083  13.024  -1.423  1.00  0.00     0.159 HD
ATOM     61  H   UNL     1      26.696  12.983  -3.095  1.00  0.00     0.159 HD
BRANCH  57  62
ATOM     62  NH1 ARG A   5      24.956  10.672  -1.506  1.00  0.00    -0.270 NA
ATOM     63  H   UNL     1      24.997  11.077  -0.544  1.00  0.00     0.191 HD
ENDBRANCH  57  62
ENDBRANCH  55  56
ENDBRANCH  54  55
ENDBRANCH  53  54
ENDBRANCH  37  53
ENDBRANCH  34  37
ENDBRANCH  32  33
BRANCH  32  64
ATOM     64  CB  HIS A   4      20.662   7.998  -9.295  1.00  0.00     0.093 C 
BRANCH  64  65
ATOM     65  CG  HIS A   4      21.400   6.764  -9.745  1.00  0.00     0.061 A 
ATOM     66  ND1 HIS A   4      21.242   6.228 -10.973  1.00  0.00    -0.242 NA
ATOM     67  CD2 HIS A   4      22.114   5.885  -8.952  1.00  0.00     0.107 A 
ATOM     68  CE1 HIS A   4      21.897   5.050 -10.908  1.00  0.00     0.196 A 
ATOM     69  NE2 HIS A   4      22.437   4.819  -9.698  1.00  0.00    -0.351 N 
ATOM     70  H   UNL     1      22.970   3.975  -9.396  1.00  0.00     0.167 HD
ENDBRANCH  64  65
ENDBRANCH  32  64
ENDBRANCH   3  32
TORSDOF 27
