REMARK SMILES CC(C)C[C@H](NC(=O)[C@H](CCC(N)=O)NC(=O)[C@@H](N)CO)C(=O)N[C@@H](C)C(=O)N[C@@H](CCCNC(=N)N)C(=O)N[C@@H](CC(N)=O)C(=O)O
REMARK SMILES IDX 22 1 23 2 24 3 5 5 6 6 7 7 8 8 9 10 15 11 16 12 17 13 18 15
REMARK SMILES IDX 19 16 20 19 21 20 10 22 11 23 12 24 13 25 14 26 4 29 2 30
REMARK SMILES IDX 1 31 3 32 25 33 26 34 27 35 29 36 28 37 30 39 38 40 40 41
REMARK SMILES IDX 39 42 41 44 46 45 47 46 48 47 42 49 43 50 44 51 45 52 31 55
REMARK SMILES IDX 32 56 33 57 34 58 35 59 37 60 36 64
REMARK H PARENT 24 4 6 9 15 14 19 17 19 18 21 21 13 27 13 28 29 38 40 43 48 48
REMARK H PARENT 44 53 44 54 34 61 37 62 37 63 36 65
ROOT
ATOM      1  C   LEU A   3      -1.771   0.027  -0.877  1.00  0.00     0.243 C 
ATOM      2  O   LEU A   3      -1.815  -1.163  -0.453  1.00  0.00    -0.273 OA
ATOM      3  N   ALA A   4      -0.620   0.496  -1.597  1.00  0.00    -0.343 N 
ATOM      4  H   UNL     1      -0.537   1.522  -1.796  1.00  0.00     0.164 HD
ENDROOT
BRANCH   1   5
ATOM      5  CA  LEU A   3      -2.909   0.978  -0.592  1.00  0.00     0.171 C 
BRANCH   5   6
ATOM      6  N   LEU A   3      -4.212   0.299  -0.642  1.00  0.00    -0.343 N 
ATOM      7  C   GLN A   2      -5.437   1.009  -0.882  1.00  0.00     0.243 C 
ATOM      8  O   GLN A   2      -5.422   2.257  -1.079  1.00  0.00    -0.273 OA
ATOM      9  H   UNL     1      -4.262  -0.742  -0.566  1.00  0.00     0.164 HD
BRANCH   7  10
ATOM     10  CA  GLN A   2      -6.741   0.260  -0.959  1.00  0.00     0.171 C 
BRANCH  10  11
ATOM     11  N   GLN A   2      -7.781   1.019  -0.257  1.00  0.00    -0.343 N 
ATOM     12  C   SER A   1      -8.395   0.576   0.967  1.00  0.00     0.239 C 
ATOM     13  O   SER A   1      -7.967  -0.452   1.563  1.00  0.00    -0.273 OA
ATOM     14  H   UNL     1      -8.090   1.932  -0.668  1.00  0.00     0.164 HD
BRANCH  12  15
ATOM     15  CA  SER A   1      -9.530   1.378   1.561  1.00  0.00     0.167 C 
BRANCH  15  16
ATOM     16  N   SER A   1     -10.540   0.514   2.180  1.00  0.00    -0.318 NA
ATOM     17  H   UNL     1     -10.105  -0.059   2.939  1.00  0.00     0.119 HD
ATOM     18  H   UNL     1     -10.900  -0.150   1.457  1.00  0.00     0.119 HD
ENDBRANCH  15  16
BRANCH  15  19
ATOM     19  CB  SER A   1      -9.012   2.413   2.568  1.00  0.00     0.184 C 
BRANCH  19  20
ATOM     20  OG  SER A   1      -8.438   1.794   3.690  1.00  0.00    -0.394 OA
ATOM     21  H   UNL     1      -7.492   1.602   3.464  1.00  0.00     0.210 HD
ENDBRANCH  19  20
ENDBRANCH  15  19
ENDBRANCH  12  15
ENDBRANCH  10  11
BRANCH  10  22
ATOM     22  CB  GLN A   2      -7.174   0.044  -2.424  1.00  0.00     0.045 C 
BRANCH  22  23
ATOM     23  CG  GLN A   2      -6.270  -0.932  -3.203  1.00  0.00     0.102 C 
BRANCH  23  24
ATOM     24  CD  GLN A   2      -6.389  -2.343  -2.701  1.00  0.00     0.217 C 
ATOM     25  NE2 GLN A   2      -5.248  -3.036  -2.192  1.00  0.00    -0.370 N 
ATOM     26  OE1 GLN A   2      -7.503  -2.933  -2.753  1.00  0.00    -0.275 OA
ATOM     27  H   UNL     1      -4.304  -2.584  -2.182  1.00  0.00     0.159 HD
ATOM     28  H   UNL     1      -5.347  -4.005  -1.823  1.00  0.00     0.159 HD
ENDBRANCH  23  24
ENDBRANCH  22  23
ENDBRANCH  10  22
ENDBRANCH   7  10
ENDBRANCH   5   6
BRANCH   5  29
ATOM     29  CB  LEU A   3      -2.714   1.750   0.731  1.00  0.00     0.038 C 
BRANCH  29  30
ATOM     30  CG  LEU A   3      -2.476   0.892   2.002  1.00  0.00    -0.015 C 
ATOM     31  CD1 LEU A   3      -2.052   1.805   3.164  1.00  0.00     0.007 C 
ATOM     32  CD2 LEU A   3      -3.719   0.076   2.406  1.00  0.00     0.007 C 
ENDBRANCH  29  30
ENDBRANCH   5  29
ENDBRANCH   1   5
BRANCH   3  33
ATOM     33  CA  ALA A   4       0.442  -0.399  -2.074  1.00  0.00     0.168 C 
ATOM     34  CB  ALA A   4       0.639  -0.201  -3.579  1.00  0.00     0.041 C 
BRANCH  33  35
ATOM     35  C   ALA A   4       1.732  -0.131  -1.342  1.00  0.00     0.242 C 
ATOM     36  N   ARG A   5       2.783  -1.111  -1.366  1.00  0.00    -0.343 N 
ATOM     37  O   ALA A   4       1.903   0.973  -0.755  1.00  0.00    -0.273 OA
ATOM     38  H   UNL     1       2.580  -2.033  -1.819  1.00  0.00     0.164 HD
BRANCH  36  39
ATOM     39  CA  ARG A   5       4.049  -0.942  -0.644  1.00  0.00     0.171 C 
BRANCH  39  40
ATOM     40  C   ARG A   5       5.195  -1.424  -1.503  1.00  0.00     0.243 C 
ATOM     41  N   ASN A   6       6.367  -0.610  -1.663  1.00  0.00    -0.341 N 
ATOM     42  O   ARG A   5       5.141  -2.567  -2.034  1.00  0.00    -0.273 OA
ATOM     43  H   UNL     1       6.363   0.349  -1.239  1.00  0.00     0.164 HD
BRANCH  41  44
ATOM     44  CA  ASN A   6       7.504  -1.020  -2.499  1.00  0.00     0.201 C 
BRANCH  44  45
ATOM     45  C   ASN A   6       8.173  -2.258  -1.959  1.00  0.00     0.326 C 
ATOM     46  O   ASN A   6       8.238  -2.467  -0.719  1.00  0.00    -0.250 OA
BRANCH  45  47
ATOM     47  OXT ASN A   6       8.761  -3.158  -2.843  1.00  0.00    -0.480 OA
ATOM     48  H   UNL     1       9.234  -3.985  -2.502  1.00  0.00     0.296 HD
ENDBRANCH  45  47
ENDBRANCH  44  45
BRANCH  44  49
ATOM     49  CB  ASN A   6       8.523   0.128  -2.670  1.00  0.00     0.136 C 
BRANCH  49  50
ATOM     50  CG  ASN A   6       9.283   0.488  -1.414  1.00  0.00     0.220 C 
ATOM     51  ND2 ASN A   6      10.595   1.045  -1.514  1.00  0.00    -0.370 N 
ATOM     52  OD1 ASN A   6       8.743   0.378  -0.279  1.00  0.00    -0.275 OA
ATOM     53  H   UNL     1      11.112   1.332  -0.654  1.00  0.00     0.159 HD
ATOM     54  H   UNL     1      11.038   1.203  -2.445  1.00  0.00     0.159 HD
ENDBRANCH  49  50
ENDBRANCH  44  49
ENDBRANCH  41  44
ENDBRANCH  39  40
BRANCH  39  55
ATOM     55  CB  ARG A   5       3.980  -1.712   0.693  1.00  0.00     0.037 C 
BRANCH  55  56
ATOM     56  CG  ARG A   5       5.272  -1.667   1.531  1.00  0.00     0.024 C 
BRANCH  56  57
ATOM     57  CD  ARG A   5       5.616  -0.257   2.033  1.00  0.00     0.116 C 
BRANCH  57  58
ATOM     58  NE  ARG A   5       6.824  -0.279   2.860  1.00  0.00    -0.357 N 
ATOM     59  CZ  ARG A   5       7.385   0.919   3.412  1.00  0.00     0.185 C 
ATOM     60  NH2 ARG A   5       8.627   0.859   4.118  1.00  0.00    -0.370 N 
ATOM     61  H   UNL     1       7.324  -1.180   3.027  1.00  0.00     0.163 HD
ATOM     62  H   UNL     1       9.135  -0.044   4.211  1.00  0.00     0.159 HD
ATOM     63  H   UNL     1       9.060   1.719   4.524  1.00  0.00     0.159 HD
BRANCH  59  64
ATOM     64  NH1 ARG A   5       6.774   2.051   3.271  1.00  0.00    -0.270 NA
ATOM     65  H   UNL     1       7.161   2.936   3.665  1.00  0.00     0.191 HD
ENDBRANCH  59  64
ENDBRANCH  57  58
ENDBRANCH  56  57
ENDBRANCH  55  56
ENDBRANCH  39  55
ENDBRANCH  36  39
ENDBRANCH  33  35
ENDBRANCH   3  33
TORSDOF 27
