REMARK SMILES CC[C@H](C)[C@H](NC(=O)[C@H](CCCNC(=N)N)NC(=O)[C@@H](N)CO)C(=O)N[C@@H](CC(C)C)C(=O)N[C@@H](CCCNC(=N)N)C(=O)N[C@@H](CC(N)=O)C(=O)O
REMARK SMILES IDX 24 1 25 2 26 3 5 5 6 6 7 7 8 8 9 10 17 11 18 12 19 13 20 15
REMARK SMILES IDX 21 16 22 19 23 20 10 22 11 23 12 24 13 25 14 26 16 27 15 31
REMARK SMILES IDX 3 33 4 34 2 35 1 36 27 37 32 38 34 39 33 40 35 42 43 43
REMARK SMILES IDX 45 44 44 45 46 47 51 48 52 49 53 50 47 52 48 53 49 54 50 55
REMARK SMILES IDX 36 58 37 59 38 60 39 61 40 62 42 63 41 67 28 69 29 70 30 71
REMARK SMILES IDX 31 72
REMARK H PARENT 26 4 6 9 17 14 21 17 21 18 23 21 13 28 16 29 16 30 15 32 34 41
REMARK H PARENT 45 46 53 51 49 56 49 57 39 64 42 65 42 66 41 68
ROOT
ATOM      1  C   ILE A   3       1.191   0.068  -0.244  1.00  0.00     0.243 C 
ATOM      2  O   ILE A   3       1.315  -0.763  -1.190  1.00  0.00    -0.273 OA
ATOM      3  N   LEU A   4      -0.078   0.263   0.403  1.00  0.00    -0.343 N 
ATOM      4  H   UNL     1      -0.092   0.852   1.262  1.00  0.00     0.164 HD
ENDROOT
BRANCH   1   5
ATOM      5  CA  ILE A   3       2.382   0.910   0.180  1.00  0.00     0.174 C 
BRANCH   5   6
ATOM      6  N   ILE A   3       3.553   0.040   0.375  1.00  0.00    -0.342 N 
ATOM      7  C   ARG A   2       4.572  -0.269  -0.590  1.00  0.00     0.243 C 
ATOM      8  O   ARG A   2       4.383  -0.010  -1.816  1.00  0.00    -0.273 OA
ATOM      9  H   UNL     1       3.616  -0.430   1.301  1.00  0.00     0.164 HD
BRANCH   7  10
ATOM     10  CA  ARG A   2       5.876  -0.902  -0.141  1.00  0.00     0.171 C 
BRANCH  10  11
ATOM     11  N   ARG A   2       6.647  -1.334  -1.311  1.00  0.00    -0.343 N 
ATOM     12  C   SER A   1       6.503  -2.640  -1.878  1.00  0.00     0.239 C 
ATOM     13  O   SER A   1       5.435  -3.288  -1.701  1.00  0.00    -0.273 OA
ATOM     14  H   UNL     1       7.396  -0.707  -1.697  1.00  0.00     0.164 HD
BRANCH  12  15
ATOM     15  CA  SER A   1       7.650  -3.262  -2.617  1.00  0.00     0.167 C 
BRANCH  15  16
ATOM     16  N   SER A   1       7.946  -4.580  -2.056  1.00  0.00    -0.318 NA
ATOM     17  H   UNL     1       8.855  -4.914  -2.457  1.00  0.00     0.119 HD
ATOM     18  H   UNL     1       8.094  -4.487  -1.022  1.00  0.00     0.119 HD
ENDBRANCH  15  16
BRANCH  15  19
ATOM     19  CB  SER A   1       7.372  -3.354  -4.132  1.00  0.00     0.184 C 
BRANCH  19  20
ATOM     20  OG  SER A   1       6.198  -4.065  -4.426  1.00  0.00    -0.394 OA
ATOM     21  H   UNL     1       6.242  -4.931  -3.927  1.00  0.00     0.210 HD
ENDBRANCH  19  20
ENDBRANCH  15  19
ENDBRANCH  12  15
ENDBRANCH  10  11
BRANCH  10  22
ATOM     22  CB  ARG A   2       6.736   0.082   0.663  1.00  0.00     0.037 C 
BRANCH  22  23
ATOM     23  CG  ARG A   2       6.173   0.437   2.050  1.00  0.00     0.024 C 
BRANCH  23  24
ATOM     24  CD  ARG A   2       7.234   0.992   3.007  1.00  0.00     0.116 C 
BRANCH  24  25
ATOM     25  NE  ARG A   2       7.838   2.220   2.474  1.00  0.00    -0.357 N 
ATOM     26  CZ  ARG A   2       8.884   2.245   1.481  1.00  0.00     0.185 C 
ATOM     27  NH2 ARG A   2       8.916   3.310   0.538  1.00  0.00    -0.370 N 
ATOM     28  H   UNL     1       7.338   3.114   2.681  1.00  0.00     0.163 HD
ATOM     29  H   UNL     1       9.427   3.191  -0.376  1.00  0.00     0.159 HD
ATOM     30  H   UNL     1       8.321   4.169   0.676  1.00  0.00     0.159 HD
BRANCH  26  31
ATOM     31  NH1 ARG A   2       9.781   1.302   1.417  1.00  0.00    -0.270 NA
ATOM     32  H   UNL     1       9.825   0.515   2.094  1.00  0.00     0.191 HD
ENDBRANCH  26  31
ENDBRANCH  24  25
ENDBRANCH  23  24
ENDBRANCH  22  23
ENDBRANCH  10  22
ENDBRANCH   7  10
ENDBRANCH   5   6
BRANCH   5  33
ATOM     33  CB  ILE A   3       2.615   2.120  -0.772  1.00  0.00     0.018 C 
ATOM     34  CG1 ILE A   3       1.380   3.040  -0.798  1.00  0.00     0.010 C 
BRANCH  33  35
ATOM     35  CG2 ILE A   3       3.875   2.948  -0.430  1.00  0.00     0.002 C 
ATOM     36  CD1 ILE A   3       3.807   3.689   0.905  1.00  0.00     0.004 C 
ENDBRANCH  33  35
ENDBRANCH   5  33
ENDBRANCH   1   5
BRANCH   3  37
ATOM     37  CA  LEU A   4      -1.321  -0.380  -0.042  1.00  0.00     0.171 C 
BRANCH  37  38
ATOM     38  C   LEU A   4      -2.490   0.565   0.074  1.00  0.00     0.243 C 
ATOM     39  N   ARG A   5      -3.767   0.219  -0.484  1.00  0.00    -0.343 N 
ATOM     40  O   LEU A   4      -2.344   1.681   0.650  1.00  0.00    -0.273 OA
ATOM     41  H   UNL     1      -3.845  -0.696  -0.974  1.00  0.00     0.164 HD
BRANCH  39  42
ATOM     42  CA  ARG A   5      -4.996   0.924  -0.098  1.00  0.00     0.171 C 
BRANCH  42  43
ATOM     43  C   ARG A   5      -5.581   0.290   1.143  1.00  0.00     0.243 C 
ATOM     44  N   ASN A   6      -6.929   0.550   1.534  1.00  0.00    -0.341 N 
ATOM     45  O   ARG A   5      -4.894  -0.510   1.835  1.00  0.00    -0.273 OA
ATOM     46  H   UNL     1      -7.307   1.525   1.468  1.00  0.00     0.164 HD
BRANCH  44  47
ATOM     47  CA  ASN A   6      -7.825  -0.555   1.851  1.00  0.00     0.201 C 
BRANCH  47  48
ATOM     48  C   ASN A   6      -9.050  -0.537   0.964  1.00  0.00     0.326 C 
ATOM     49  O   ASN A   6      -9.320   0.468   0.254  1.00  0.00    -0.250 OA
BRANCH  48  50
ATOM     50  OXT ASN A   6      -9.861  -1.661   0.870  1.00  0.00    -0.480 OA
ATOM     51  H   UNL     1     -10.656  -1.698   0.232  1.00  0.00     0.296 HD
ENDBRANCH  48  50
ENDBRANCH  47  48
BRANCH  47  52
ATOM     52  CB  ASN A   6      -8.238  -0.524   3.341  1.00  0.00     0.136 C 
BRANCH  52  53
ATOM     53  CG  ASN A   6      -8.770  -1.847   3.782  1.00  0.00     0.220 C 
ATOM     54  ND2 ASN A   6      -7.878  -2.905   4.114  1.00  0.00    -0.370 N 
ATOM     55  OD1 ASN A   6     -10.015  -2.045   3.813  1.00  0.00    -0.275 OA
ATOM     56  H   UNL     1      -8.246  -3.859   4.318  1.00  0.00     0.159 HD
ATOM     57  H   UNL     1      -6.844  -2.727   4.183  1.00  0.00     0.159 HD
ENDBRANCH  52  53
ENDBRANCH  47  52
ENDBRANCH  44  47
ENDBRANCH  42  43
BRANCH  42  58
ATOM     58  CB  ARG A   5      -6.011   0.920  -1.283  1.00  0.00     0.037 C 
BRANCH  58  59
ATOM     59  CG  ARG A   5      -6.201   2.328  -1.911  1.00  0.00     0.024 C 
BRANCH  59  60
ATOM     60  CD  ARG A   5      -7.528   2.541  -2.656  1.00  0.00     0.116 C 
BRANCH  60  61
ATOM     61  NE  ARG A   5      -7.921   1.444  -3.549  1.00  0.00    -0.357 N 
ATOM     62  CZ  ARG A   5      -7.095   0.801  -4.539  1.00  0.00     0.185 C 
ATOM     63  NH2 ARG A   5      -7.704  -0.037  -5.523  1.00  0.00    -0.370 N 
ATOM     64  H   UNL     1      -8.950   1.292  -3.611  1.00  0.00     0.163 HD
ATOM     65  H   UNL     1      -8.742  -0.120  -5.568  1.00  0.00     0.159 HD
ATOM     66  H   UNL     1      -7.122  -0.540  -6.237  1.00  0.00     0.159 HD
BRANCH  62  67
ATOM     67  NH1 ARG A   5      -5.810   0.916  -4.495  1.00  0.00    -0.270 NA
ATOM     68  H   UNL     1      -5.186   0.436  -5.173  1.00  0.00     0.191 HD
ENDBRANCH  62  67
ENDBRANCH  60  61
ENDBRANCH  59  60
ENDBRANCH  58  59
ENDBRANCH  42  58
ENDBRANCH  39  42
ENDBRANCH  37  38
BRANCH  37  69
ATOM     69  CB  LEU A   4      -1.578  -1.727   0.699  1.00  0.00     0.038 C 
BRANCH  69  70
ATOM     70  CG  LEU A   4      -0.971  -1.860   2.122  1.00  0.00    -0.015 C 
ATOM     71  CD1 LEU A   4      -1.087  -3.304   2.613  1.00  0.00     0.007 C 
ATOM     72  CD2 LEU A   4      -1.634  -0.917   3.148  1.00  0.00     0.007 C 
ENDBRANCH  69  70
ENDBRANCH  37  69
ENDBRANCH   3  37
TORSDOF 31
