REMARK SMILES CC(C)C[C@H](NC(=O)[C@H](Cc1ccccc1)NC(=O)[C@@H](N)CO)C(=O)N[C@@H](CC(N)=O)C(=O)N[C@@H](CCCNC(=N)N)C(=O)N[C@@H](CCCNC(=N)N)C(=O)O
REMARK SMILES IDX 32 1 33 2 34 3 27 5 26 6 24 7 25 8 5 10 6 11 7 12 8 13 9 15
REMARK SMILES IDX 17 16 18 17 19 18 20 20 21 21 22 24 23 25 10 27 11 28 12 29
REMARK SMILES IDX 16 30 13 31 15 32 14 33 4 34 2 35 1 36 3 37 28 38 29 39
REMARK SMILES IDX 30 40 31 41 35 44 43 45 45 46 44 47 46 49 54 50 55 51 56 52
REMARK SMILES IDX 47 54 48 55 49 56 50 57 51 58 53 59 52 63 36 65 37 66 38 67
REMARK SMILES IDX 39 68 40 69 42 70 41 74
REMARK H PARENT 34 4 26 9 6 14 17 19 21 22 21 23 23 26 30 42 30 43 45 48 56 53
REMARK H PARENT 50 60 53 61 53 62 52 64 39 71 42 72 42 73 41 75
ROOT
ATOM      1  C   ASN A   4      22.714   9.206  -8.528  1.00  0.00     0.243 C 
ATOM      2  O   ASN A   4      22.881  10.031  -9.467  1.00  0.00    -0.273 OA
ATOM      3  N   ARG A   5      23.820   8.710  -7.787  1.00  0.00    -0.343 N 
ATOM      4  H   UNL     1      23.663   7.987  -7.048  1.00  0.00     0.164 HD
ENDROOT
BRANCH   1   5
ATOM      5  CA  ASN A   4      21.347   8.747  -8.158  1.00  0.00     0.180 C 
BRANCH   5   6
ATOM      6  N   ASN A   4      20.565   9.911  -7.788  1.00  0.00    -0.342 N 
ATOM      7  C   LEU A   3      20.054  10.082  -6.478  1.00  0.00     0.243 C 
ATOM      8  O   LEU A   3      20.166   9.159  -5.624  1.00  0.00    -0.273 OA
ATOM      9  H   UNL     1      20.401  10.652  -8.508  1.00  0.00     0.164 HD
BRANCH   7  10
ATOM     10  CA  LEU A   3      19.341  11.352  -6.147  1.00  0.00     0.171 C 
BRANCH  10  11
ATOM     11  N   LEU A   3      18.083  11.020  -5.538  1.00  0.00    -0.343 N 
ATOM     12  C   PHE A   2      16.887  11.745  -5.776  1.00  0.00     0.243 C 
ATOM     13  O   PHE A   2      16.905  12.796  -6.474  1.00  0.00    -0.273 OA
ATOM     14  H   UNL     1      18.156  10.386  -4.719  1.00  0.00     0.164 HD
BRANCH  12  15
ATOM     15  CA  PHE A   2      15.652  11.313  -5.056  1.00  0.00     0.175 C 
BRANCH  15  16
ATOM     16  N   PHE A   2      14.455  11.739  -5.768  1.00  0.00    -0.343 N 
ATOM     17  C   SER A   1      13.914  13.049  -5.637  1.00  0.00     0.239 C 
ATOM     18  O   SER A   1      14.441  13.870  -4.837  1.00  0.00    -0.273 OA
ATOM     19  H   UNL     1      13.871  10.998  -6.213  1.00  0.00     0.164 HD
BRANCH  17  20
ATOM     20  CA  SER A   1      12.661  13.409  -6.393  1.00  0.00     0.167 C 
BRANCH  20  21
ATOM     21  N   SER A   1      12.471  14.861  -6.379  1.00  0.00    -0.318 NA
ATOM     22  H   UNL     1      11.538  15.086  -6.794  1.00  0.00     0.119 HD
ATOM     23  H   UNL     1      13.201  15.316  -6.976  1.00  0.00     0.119 HD
ENDBRANCH  20  21
BRANCH  20  24
ATOM     24  CB  SER A   1      12.691  12.878  -7.846  1.00  0.00     0.184 C 
BRANCH  24  25
ATOM     25  OG  SER A   1      11.437  13.052  -8.443  1.00  0.00    -0.394 OA
ATOM     26  H   UNL     1      11.538  12.777  -9.391  1.00  0.00     0.210 HD
ENDBRANCH  24  25
ENDBRANCH  20  24
ENDBRANCH  17  20
ENDBRANCH  15  16
BRANCH  15  27
ATOM     27  CB  PHE A   2      15.610   9.774  -4.879  1.00  0.00     0.070 C 
BRANCH  27  28
ATOM     28  CG  PHE A   2      14.435   9.292  -4.091  1.00  0.00    -0.045 A 
ATOM     29  CD1 PHE A   2      13.898  10.048  -3.033  1.00  0.00     0.004 A 
ATOM     30  CD2 PHE A   2      13.964   7.991  -4.310  1.00  0.00     0.004 A 
ATOM     31  CE1 PHE A   2      12.866   9.535  -2.258  1.00  0.00     0.000 A 
ATOM     32  CE2 PHE A   2      12.937   7.477  -3.520  1.00  0.00     0.000 A 
ATOM     33  CZ  PHE A   2      12.384   8.251  -2.500  1.00  0.00     0.000 A 
ENDBRANCH  27  28
ENDBRANCH  15  27
ENDBRANCH  12  15
ENDBRANCH  10  11
BRANCH  10  34
ATOM     34  CB  LEU A   3      20.164  12.252  -5.216  1.00  0.00     0.038 C 
BRANCH  34  35
ATOM     35  CG  LEU A   3      20.417  11.679  -3.791  1.00  0.00    -0.015 C 
ATOM     36  CD1 LEU A   3      21.819  12.066  -3.317  1.00  0.00     0.007 C 
ATOM     37  CD2 LEU A   3      19.369  12.169  -2.781  1.00  0.00     0.007 C 
ENDBRANCH  34  35
ENDBRANCH  10  34
ENDBRANCH   7  10
ENDBRANCH   5   6
BRANCH   5  38
ATOM     38  CB  ASN A   4      20.665   8.000  -9.306  1.00  0.00     0.134 C 
BRANCH  38  39
ATOM     39  CG  ASN A   4      21.419   6.771  -9.742  1.00  0.00     0.220 C 
ATOM     40  ND2 ASN A   4      21.293   6.293 -11.079  1.00  0.00    -0.370 N 
ATOM     41  OD1 ASN A   4      22.090   6.103  -8.909  1.00  0.00    -0.275 OA
ATOM     42  H   UNL     1      20.735   6.821 -11.787  1.00  0.00     0.159 HD
ATOM     43  H   UNL     1      21.727   5.384 -11.348  1.00  0.00     0.159 HD
ENDBRANCH  38  39
ENDBRANCH   5  38
ENDBRANCH   1   5
BRANCH   3  44
ATOM     44  CA  ARG A   5      25.183   9.117  -8.067  1.00  0.00     0.171 C 
BRANCH  44  45
ATOM     45  C   ARG A   5      25.901   7.966  -8.682  1.00  0.00     0.243 C 
ATOM     46  N   ARG A   6      25.922   7.876 -10.098  1.00  0.00    -0.341 N 
ATOM     47  O   ARG A   5      26.445   7.080  -7.970  1.00  0.00    -0.273 OA
ATOM     48  H   UNL     1      25.587   8.710 -10.632  1.00  0.00     0.164 HD
BRANCH  46  49
ATOM     49  CA  ARG A   6      26.535   6.765 -10.816  1.00  0.00     0.192 C 
BRANCH  49  50
ATOM     50  C   ARG A   6      27.985   6.641 -10.425  1.00  0.00     0.326 C 
ATOM     51  O   ARG A   6      28.794   7.573 -10.676  1.00  0.00    -0.250 OA
BRANCH  50  52
ATOM     52  OXT ARG A   6      28.432   5.488  -9.786  1.00  0.00    -0.480 OA
ATOM     53  H   UNL     1      29.403   5.388  -9.515  1.00  0.00     0.296 HD
ENDBRANCH  50  52
ENDBRANCH  49  50
BRANCH  49  54
ATOM     54  CB  ARG A   6      26.428   7.010 -12.331  1.00  0.00     0.039 C 
BRANCH  54  55
ATOM     55  CG  ARG A   6      24.976   7.122 -12.838  1.00  0.00     0.024 C 
BRANCH  55  56
ATOM     56  CD  ARG A   6      24.349   5.742 -13.081  1.00  0.00     0.116 C 
BRANCH  56  57
ATOM     57  NE  ARG A   6      23.046   5.869 -13.737  1.00  0.00    -0.357 N 
ATOM     58  CZ  ARG A   6      22.240   4.741 -14.120  1.00  0.00     0.185 C 
ATOM     59  NH2 ARG A   6      20.983   4.964 -14.758  1.00  0.00    -0.370 N 
ATOM     60  H   UNL     1      22.670   6.823 -13.942  1.00  0.00     0.163 HD
ATOM     61  H   UNL     1      20.381   4.158 -15.041  1.00  0.00     0.159 HD
ATOM     62  H   UNL     1      20.647   5.934 -14.947  1.00  0.00     0.159 HD
BRANCH  58  63
ATOM     63  NH1 ARG A   6      22.623   3.523 -13.890  1.00  0.00    -0.270 NA
ATOM     64  H   UNL     1      23.524   3.280 -13.424  1.00  0.00     0.191 HD
ENDBRANCH  58  63
ENDBRANCH  56  57
ENDBRANCH  55  56
ENDBRANCH  54  55
ENDBRANCH  49  54
ENDBRANCH  46  49
ENDBRANCH  44  45
BRANCH  44  65
ATOM     65  CB  ARG A   5      25.857   9.599  -6.789  1.00  0.00     0.037 C 
BRANCH  65  66
ATOM     66  CG  ARG A   5      25.164  10.858  -6.269  1.00  0.00     0.024 C 
BRANCH  66  67
ATOM     67  CD  ARG A   5      25.838  11.391  -5.013  1.00  0.00     0.116 C 
BRANCH  67  68
ATOM     68  NE  ARG A   5      25.378  10.686  -3.819  1.00  0.00    -0.357 N 
ATOM     69  CZ  ARG A   5      25.469  11.281  -2.526  1.00  0.00     0.185 C 
ATOM     70  NH2 ARG A   5      26.107  12.546  -2.351  1.00  0.00    -0.370 N 
ATOM     71  H   UNL     1      24.894   9.763  -3.911  1.00  0.00     0.163 HD
ATOM     72  H   UNL     1      26.697  12.982  -3.093  1.00  0.00     0.159 HD
ATOM     73  H   UNL     1      26.080  13.024  -1.423  1.00  0.00     0.159 HD
BRANCH  69  74
ATOM     74  NH1 ARG A   5      24.954  10.672  -1.506  1.00  0.00    -0.270 NA
ATOM     75  H   UNL     1      24.995  11.077  -0.544  1.00  0.00     0.191 HD
ENDBRANCH  69  74
ENDBRANCH  67  68
ENDBRANCH  66  67
ENDBRANCH  65  66
ENDBRANCH  44  65
ENDBRANCH   3  44
TORSDOF 31
