REMARK SMILES N=C(N)NCCC[C@H](NC(=O)[C@H](CCCCN)NC(=O)[C@@H]1CCCN1C(=O)[C@H](Cc1ccccc1)NC(=O)[C@@H](N)CO)C(=O)N[C@@H](CC(N)=O)C(=O)O
REMARK SMILES IDX 19 1 20 2 18 3 21 5 25 6 24 7 22 8 23 9 26 10 27 11 28 12
REMARK SMILES IDX 36 13 37 14 38 15 39 17 40 18 41 21 42 22 29 24 30 25 31 26
REMARK SMILES IDX 35 27 32 28 34 29 33 30 12 31 10 32 9 33 11 34 8 36 43 37
REMARK SMILES IDX 45 38 44 39 46 41 51 42 52 43 53 44 47 46 48 47 49 48 50 49
REMARK SMILES IDX 7 52 6 53 5 54 4 55 2 56 3 57 1 61 13 63 14 64 15 65 16 66
REMARK SMILES IDX 17 67
REMARK H PARENT 18 4 36 16 40 19 40 20 42 23 9 35 45 40 53 45 49 50 49 51 4 58
REMARK H PARENT 3 59 3 60 1 62 17 68 17 69
ROOT
ATOM      1  C   PRO A   3      20.008  10.090  -6.441  1.00  0.00     0.243 C 
ATOM      2  O   PRO A   3      20.167   9.190  -5.572  1.00  0.00    -0.273 OA
ATOM      3  N   LYS A   4      20.545   9.934  -7.752  1.00  0.00    -0.343 N 
ATOM      4  H   UNL     1      20.371  10.677  -8.467  1.00  0.00     0.164 HD
ENDROOT
BRANCH   1   5
ATOM      5  CA  PRO A   3      19.249  11.340  -6.101  1.00  0.00     0.174 C 
ATOM      6  N   PRO A   3      18.015  10.998  -5.407  1.00  0.00    -0.329 N 
ATOM      7  CD  PRO A   3      18.036  11.389  -4.005  1.00  0.00     0.120 C 
ATOM      8  CB  PRO A   3      20.034  12.213  -5.122  1.00  0.00     0.037 C 
ATOM      9  CG  PRO A   3      19.437  11.931  -3.746  1.00  0.00     0.024 C 
BRANCH   6  10
ATOM     10  C   PHE A   2      16.902  10.357  -6.063  1.00  0.00     0.246 C 
ATOM     11  O   PHE A   2      16.957  10.151  -7.306  1.00  0.00    -0.272 OA
BRANCH  10  12
ATOM     12  CA  PHE A   2      15.709   9.845  -5.278  1.00  0.00     0.176 C 
BRANCH  12  13
ATOM     13  N   PHE A   2      14.468   9.952  -6.058  1.00  0.00    -0.343 N 
ATOM     14  C   SER A   1      13.176  10.020  -5.432  1.00  0.00     0.239 C 
ATOM     15  O   SER A   1      13.079   9.922  -4.178  1.00  0.00    -0.273 OA
ATOM     16  H   UNL     1      14.516   9.936  -7.101  1.00  0.00     0.164 HD
BRANCH  14  17
ATOM     17  CA  SER A   1      11.918  10.195  -6.248  1.00  0.00     0.167 C 
BRANCH  17  18
ATOM     18  N   SER A   1      12.030  11.362  -7.129  1.00  0.00    -0.318 NA
ATOM     19  H   UNL     1      12.723  11.178  -7.889  1.00  0.00     0.119 HD
ATOM     20  H   UNL     1      11.104  11.523  -7.588  1.00  0.00     0.119 HD
ENDBRANCH  17  18
BRANCH  17  21
ATOM     21  CB  SER A   1      11.546   8.914  -7.021  1.00  0.00     0.184 C 
BRANCH  21  22
ATOM     22  OG  SER A   1      12.517   8.581  -7.978  1.00  0.00    -0.394 OA
ATOM     23  H   UNL     1      12.252   9.022  -8.826  1.00  0.00     0.210 HD
ENDBRANCH  21  22
ENDBRANCH  17  21
ENDBRANCH  14  17
ENDBRANCH  12  13
BRANCH  12  24
ATOM     24  CB  PHE A   2      15.941   8.396  -4.800  1.00  0.00     0.070 C 
BRANCH  24  25
ATOM     25  CG  PHE A   2      15.987   7.397  -5.932  1.00  0.00    -0.045 A 
ATOM     26  CD1 PHE A   2      17.210   7.059  -6.536  1.00  0.00     0.004 A 
ATOM     27  CD2 PHE A   2      14.803   6.805  -6.400  1.00  0.00     0.004 A 
ATOM     28  CE1 PHE A   2      17.244   6.142  -7.592  1.00  0.00     0.000 A 
ATOM     29  CE2 PHE A   2      14.840   5.894  -7.460  1.00  0.00     0.000 A 
ATOM     30  CZ  PHE A   2      16.060   5.563  -8.056  1.00  0.00     0.000 A 
ENDBRANCH  24  25
ENDBRANCH  12  24
ENDBRANCH  10  12
ENDBRANCH   6  10
ENDBRANCH   1   5
BRANCH   3  31
ATOM     31  CA  LYS A   4      21.336   8.773  -8.128  1.00  0.00     0.171 C 
BRANCH  31  32
ATOM     32  C   LYS A   4      22.705   9.226  -8.512  1.00  0.00     0.243 C 
ATOM     33  N   ARG A   5      23.817   8.720  -7.785  1.00  0.00    -0.343 N 
ATOM     34  O   LYS A   4      22.870  10.037  -9.463  1.00  0.00    -0.273 OA
ATOM     35  H   UNL     1      23.662   8.027  -7.018  1.00  0.00     0.164 HD
BRANCH  33  36
ATOM     36  CA  ARG A   5      25.181   9.121  -8.073  1.00  0.00     0.171 C 
BRANCH  36  37
ATOM     37  C   ARG A   5      25.897   7.967  -8.686  1.00  0.00     0.243 C 
ATOM     38  N   ASN A   6      25.912   7.864 -10.102  1.00  0.00    -0.341 N 
ATOM     39  O   ARG A   5      26.446   7.087  -7.969  1.00  0.00    -0.273 OA
ATOM     40  H   UNL     1      25.488   8.647 -10.651  1.00  0.00     0.164 HD
BRANCH  38  41
ATOM     41  CA  ASN A   6      26.541   6.750 -10.803  1.00  0.00     0.201 C 
BRANCH  41  42
ATOM     42  C   ASN A   6      27.992   6.642 -10.415  1.00  0.00     0.326 C 
ATOM     43  O   ASN A   6      28.794   7.578 -10.677  1.00  0.00    -0.250 OA
BRANCH  42  44
ATOM     44  OXT ASN A   6      28.451   5.499  -9.767  1.00  0.00    -0.480 OA
ATOM     45  H   UNL     1      29.423   5.409  -9.497  1.00  0.00     0.296 HD
ENDBRANCH  42  44
ENDBRANCH  41  42
BRANCH  41  46
ATOM     46  CB  ASN A   6      26.424   6.946 -12.323  1.00  0.00     0.136 C 
BRANCH  46  47
ATOM     47  CG  ASN A   6      25.010   7.180 -12.773  1.00  0.00     0.220 C 
ATOM     48  ND2 ASN A   6      24.754   8.090 -13.833  1.00  0.00    -0.370 N 
ATOM     49  OD1 ASN A   6      24.053   6.557 -12.243  1.00  0.00    -0.275 OA
ATOM     50  H   UNL     1      23.775   8.257 -14.157  1.00  0.00     0.159 HD
ATOM     51  H   UNL     1      25.534   8.599 -14.305  1.00  0.00     0.159 HD
ENDBRANCH  46  47
ENDBRANCH  41  46
ENDBRANCH  38  41
ENDBRANCH  36  37
BRANCH  36  52
ATOM     52  CB  ARG A   5      25.860   9.605  -6.797  1.00  0.00     0.037 C 
BRANCH  52  53
ATOM     53  CG  ARG A   5      25.166  10.861  -6.272  1.00  0.00     0.024 C 
BRANCH  53  54
ATOM     54  CD  ARG A   5      25.842  11.391  -5.015  1.00  0.00     0.116 C 
BRANCH  54  55
ATOM     55  NE  ARG A   5      25.378  10.685  -3.823  1.00  0.00    -0.357 N 
ATOM     56  CZ  ARG A   5      25.468  11.279  -2.527  1.00  0.00     0.185 C 
ATOM     57  NH2 ARG A   5      26.106  12.541  -2.349  1.00  0.00    -0.370 N 
ATOM     58  H   UNL     1      24.903   9.758  -3.922  1.00  0.00     0.163 HD
ATOM     59  H   UNL     1      26.083  13.006  -1.415  1.00  0.00     0.159 HD
ATOM     60  H   UNL     1      26.693  12.982  -3.089  1.00  0.00     0.159 HD
BRANCH  56  61
ATOM     61  NH1 ARG A   5      24.958  10.678  -1.500  1.00  0.00    -0.270 NA
ATOM     62  H   UNL     1      24.477   9.755  -1.584  1.00  0.00     0.191 HD
ENDBRANCH  56  61
ENDBRANCH  54  55
ENDBRANCH  53  54
ENDBRANCH  52  53
ENDBRANCH  36  52
ENDBRANCH  33  36
ENDBRANCH  31  32
BRANCH  31  63
ATOM     63  CB  LYS A   4      20.649   8.005  -9.263  1.00  0.00     0.035 C 
BRANCH  63  64
ATOM     64  CG  LYS A   4      21.449   6.790  -9.764  1.00  0.00     0.004 C 
BRANCH  64  65
ATOM     65  CD  LYS A   4      21.760   5.772  -8.654  1.00  0.00     0.015 C 
BRANCH  65  66
ATOM     66  CE  LYS A   4      22.440   4.511  -9.201  1.00  0.00     0.077 C 
BRANCH  66  67
ATOM     67  NZ  LYS A   4      21.499   3.699  -9.968  1.00  0.00    -0.330 NA
ATOM     68  H   UNL     1      21.438   4.089 -10.936  1.00  0.00     0.118 HD
ATOM     69  H   UNL     1      21.912   2.743 -10.071  1.00  0.00     0.118 HD
ENDBRANCH  66  67
ENDBRANCH  65  66
ENDBRANCH  64  65
ENDBRANCH  63  64
ENDBRANCH  31  63
ENDBRANCH   3  31
TORSDOF 29
