REMARK SMILES CC(C)C[C@H](NC(=O)[C@H](C)NC(=O)[C@H](Cc1ccccc1)NC(=O)[C@@H](N)CO)C(=O)N[C@@H](CCCNC(=N)N)C(=O)N[C@@H](CCCCN)C(=O)O
REMARK SMILES IDX 29 1 30 2 31 3 5 5 6 6 7 7 8 8 9 10 10 11 11 12 12 13 13 14
REMARK SMILES IDX 14 16 22 17 23 18 24 19 25 21 26 22 27 25 28 26 15 28 16 29
REMARK SMILES IDX 17 30 21 31 18 32 20 33 19 34 4 35 2 36 1 37 3 38 32 39
REMARK SMILES IDX 40 40 42 41 41 42 43 44 49 45 50 46 51 47 44 49 45 50 46 51
REMARK SMILES IDX 47 52 48 53 33 56 34 57 35 58 36 59 37 60 39 61 38 65
REMARK H PARENT 31 4 6 9 11 15 22 20 26 23 26 24 28 27 42 43 51 48 48 54 48 55
REMARK H PARENT 36 62 39 63 39 64 38 66
ROOT
ATOM      1  C   LEU A   4      22.712   9.215  -8.518  1.00  0.00     0.243 C 
ATOM      2  O   LEU A   4      22.876  10.031  -9.466  1.00  0.00    -0.273 OA
ATOM      3  N   ARG A   5      23.821   8.719  -7.783  1.00  0.00    -0.343 N 
ATOM      4  H   UNL     1      23.665   8.029  -7.013  1.00  0.00     0.164 HD
ENDROOT
BRANCH   1   5
ATOM      5  CA  LEU A   4      21.346   8.759  -8.137  1.00  0.00     0.171 C 
BRANCH   5   6
ATOM      6  N   LEU A   4      20.560   9.920  -7.773  1.00  0.00    -0.343 N 
ATOM      7  C   ALA A   3      20.046  10.101  -6.462  1.00  0.00     0.242 C 
ATOM      8  O   ALA A   3      20.175   9.200  -5.587  1.00  0.00    -0.273 OA
ATOM      9  H   UNL     1      20.391  10.654  -8.498  1.00  0.00     0.164 HD
BRANCH   7  10
ATOM     10  CA  ALA A   3      19.341  11.374  -6.146  1.00  0.00     0.168 C 
ATOM     11  CB  ALA A   3      20.180  12.246  -5.221  1.00  0.00     0.041 C 
BRANCH  10  12
ATOM     12  N   ALA A   3      18.096  11.059  -5.495  1.00  0.00    -0.343 N 
ATOM     13  C   PHE A   2      16.889  11.751  -5.773  1.00  0.00     0.243 C 
ATOM     14  O   PHE A   2      16.900  12.792  -6.487  1.00  0.00    -0.273 OA
ATOM     15  H   UNL     1      18.189  10.557  -4.585  1.00  0.00     0.164 HD
BRANCH  13  16
ATOM     16  CA  PHE A   2      15.654  11.314  -5.059  1.00  0.00     0.175 C 
BRANCH  16  17
ATOM     17  N   PHE A   2      14.456  11.739  -5.769  1.00  0.00    -0.343 N 
ATOM     18  C   SER A   1      13.917  13.048  -5.633  1.00  0.00     0.239 C 
ATOM     19  O   SER A   1      14.448  13.866  -4.831  1.00  0.00    -0.273 OA
ATOM     20  H   UNL     1      13.872  11.000  -6.216  1.00  0.00     0.164 HD
BRANCH  18  21
ATOM     21  CA  SER A   1      12.661  13.412  -6.387  1.00  0.00     0.167 C 
BRANCH  21  22
ATOM     22  N   SER A   1      12.457  14.862  -6.398  1.00  0.00    -0.318 NA
ATOM     23  H   UNL     1      13.318  15.336  -6.758  1.00  0.00     0.119 HD
ATOM     24  H   UNL     1      12.292  15.192  -5.419  1.00  0.00     0.119 HD
ENDBRANCH  21  22
BRANCH  21  25
ATOM     25  CB  SER A   1      12.690  12.888  -7.841  1.00  0.00     0.184 C 
BRANCH  25  26
ATOM     26  OG  SER A   1      11.437  13.050  -8.444  1.00  0.00    -0.394 OA
ATOM     27  H   UNL     1      11.386  13.992  -8.750  1.00  0.00     0.210 HD
ENDBRANCH  25  26
ENDBRANCH  21  25
ENDBRANCH  18  21
ENDBRANCH  16  17
BRANCH  16  28
ATOM     28  CB  PHE A   2      15.619   9.775  -4.891  1.00  0.00     0.070 C 
BRANCH  28  29
ATOM     29  CG  PHE A   2      14.450   9.289  -4.089  1.00  0.00    -0.045 A 
ATOM     30  CD1 PHE A   2      13.906  10.047  -3.033  1.00  0.00     0.004 A 
ATOM     31  CD2 PHE A   2      13.972   7.990  -4.310  1.00  0.00     0.004 A 
ATOM     32  CE1 PHE A   2      12.870   9.536  -2.261  1.00  0.00     0.000 A 
ATOM     33  CE2 PHE A   2      12.941   7.478  -3.522  1.00  0.00     0.000 A 
ATOM     34  CZ  PHE A   2      12.387   8.253  -2.503  1.00  0.00     0.000 A 
ENDBRANCH  28  29
ENDBRANCH  16  28
ENDBRANCH  13  16
ENDBRANCH  10  12
ENDBRANCH   7  10
ENDBRANCH   5   6
BRANCH   5  35
ATOM     35  CB  LEU A   4      20.656   7.998  -9.272  1.00  0.00     0.038 C 
BRANCH  35  36
ATOM     36  CG  LEU A   4      21.451   6.771  -9.771  1.00  0.00    -0.015 C 
ATOM     37  CD1 LEU A   4      21.764   5.779  -8.641  1.00  0.00     0.007 C 
ATOM     38  CD2 LEU A   4      20.662   6.067 -10.878  1.00  0.00     0.007 C 
ENDBRANCH  35  36
ENDBRANCH   5  35
ENDBRANCH   1   5
BRANCH   3  39
ATOM     39  CA  ARG A   5      25.185   9.121  -8.070  1.00  0.00     0.171 C 
BRANCH  39  40
ATOM     40  C   ARG A   5      25.899   7.967  -8.685  1.00  0.00     0.243 C 
ATOM     41  N   LYS A   6      25.921   7.877 -10.102  1.00  0.00    -0.341 N 
ATOM     42  O   ARG A   5      26.443   7.082  -7.971  1.00  0.00    -0.273 OA
ATOM     43  H   UNL     1      25.576   8.705 -10.637  1.00  0.00     0.164 HD
BRANCH  41  44
ATOM     44  CA  LYS A   6      26.538   6.765 -10.815  1.00  0.00     0.192 C 
BRANCH  44  45
ATOM     45  C   LYS A   6      27.987   6.643 -10.426  1.00  0.00     0.326 C 
ATOM     46  O   LYS A   6      28.795   7.577 -10.679  1.00  0.00    -0.250 OA
BRANCH  45  47
ATOM     47  OXT LYS A   6      28.438   5.492  -9.787  1.00  0.00    -0.480 OA
ATOM     48  H   UNL     1      29.409   5.393  -9.518  1.00  0.00     0.296 HD
ENDBRANCH  45  47
ENDBRANCH  44  45
BRANCH  44  49
ATOM     49  CB  LYS A   6      26.421   6.983 -12.335  1.00  0.00     0.037 C 
BRANCH  49  50
ATOM     50  CG  LYS A   6      24.960   7.136 -12.800  1.00  0.00     0.004 C 
BRANCH  50  51
ATOM     51  CD  LYS A   6      24.806   6.980 -14.323  1.00  0.00     0.015 C 
BRANCH  51  52
ATOM     52  CE  LYS A   6      25.478   8.102 -15.127  1.00  0.00     0.077 C 
BRANCH  52  53
ATOM     53  NZ  LYS A   6      24.917   9.405 -14.778  1.00  0.00    -0.330 NA
ATOM     54  H   UNL     1      23.931   9.440 -15.124  1.00  0.00     0.118 HD
ATOM     55  H   UNL     1      25.446  10.132 -15.312  1.00  0.00     0.118 HD
ENDBRANCH  52  53
ENDBRANCH  51  52
ENDBRANCH  50  51
ENDBRANCH  49  50
ENDBRANCH  44  49
ENDBRANCH  41  44
ENDBRANCH  39  40
BRANCH  39  56
ATOM     56  CB  ARG A   5      25.863   9.604  -6.794  1.00  0.00     0.037 C 
BRANCH  56  57
ATOM     57  CG  ARG A   5      25.168  10.861  -6.271  1.00  0.00     0.024 C 
BRANCH  57  58
ATOM     58  CD  ARG A   5      25.842  11.391  -5.014  1.00  0.00     0.116 C 
BRANCH  58  59
ATOM     59  NE  ARG A   5      25.378  10.685  -3.823  1.00  0.00    -0.357 N 
ATOM     60  CZ  ARG A   5      25.469  11.279  -2.527  1.00  0.00     0.185 C 
ATOM     61  NH2 ARG A   5      26.106  12.541  -2.349  1.00  0.00    -0.370 N 
ATOM     62  H   UNL     1      24.904   9.758  -3.921  1.00  0.00     0.163 HD
ATOM     63  H   UNL     1      26.083  13.007  -1.414  1.00  0.00     0.159 HD
ATOM     64  H   UNL     1      26.693  12.983  -3.089  1.00  0.00     0.159 HD
BRANCH  60  65
ATOM     65  NH1 ARG A   5      24.959  10.678  -1.499  1.00  0.00    -0.270 NA
ATOM     66  H   UNL     1      24.478   9.755  -1.583  1.00  0.00     0.191 HD
ENDBRANCH  60  65
ENDBRANCH  58  59
ENDBRANCH  57  58
ENDBRANCH  56  57
ENDBRANCH  39  56
ENDBRANCH   3  39
TORSDOF 29
