REMARK SMILES N=C(N)NCCC[C@H](NC(=O)[C@@H]1CCCN1C(=O)[C@H](Cc1c[nH]cn1)NC(=O)[C@H](Cc1ccccc1)NC(=O)[C@@H](N)CO)C(=O)N[C@@H](CC(N)=O)C(=O)O
REMARK SMILES IDX 16 1 12 2 13 3 14 4 15 5 17 6 18 7 19 8 26 9 27 10 28 11
REMARK SMILES IDX 29 13 37 14 38 15 39 16 40 18 41 19 42 22 43 23 30 25 31 26
REMARK SMILES IDX 32 27 36 28 33 29 35 30 34 31 20 32 21 33 25 34 22 35 24 36
REMARK SMILES IDX 23 37 10 39 9 40 11 41 8 43 44 44 46 45 45 46 47 48 52 49
REMARK SMILES IDX 53 50 54 51 48 53 49 54 50 55 51 56 7 59 6 60 5 61 4 62 2 63
REMARK SMILES IDX 3 64 1 68
REMARK H PARENT 26 12 37 17 41 20 41 21 43 24 23 38 9 42 46 47 54 52 50 57
REMARK H PARENT 50 58 4 65 3 66 3 67 1 69
ROOT
ATOM      1  N   PRO A   4      20.664   9.877  -7.776  1.00  0.00    -0.329 N 
ATOM      2  CA  PRO A   4      21.509   8.729  -8.082  1.00  0.00     0.174 C 
ATOM      3  CB  PRO A   4      21.683   8.752  -9.600  1.00  0.00     0.037 C 
ATOM      4  CG  PRO A   4      21.383  10.185 -10.023  1.00  0.00     0.024 C 
ATOM      5  CD  PRO A   4      20.514  10.771  -8.916  1.00  0.00     0.120 C 
ENDROOT
BRANCH   1   6
ATOM      6  C   HIS A   3      20.073  10.075  -6.486  1.00  0.00     0.246 C 
ATOM      7  O   HIS A   3      20.171   9.166  -5.615  1.00  0.00    -0.272 OA
BRANCH   6   8
ATOM      8  CA  HIS A   3      19.353  11.353  -6.152  1.00  0.00     0.177 C 
BRANCH   8   9
ATOM      9  N   HIS A   3      18.095  11.028  -5.525  1.00  0.00    -0.342 N 
ATOM     10  C   PHE A   2      16.893  11.745  -5.776  1.00  0.00     0.243 C 
ATOM     11  O   PHE A   2      16.908  12.792  -6.479  1.00  0.00    -0.273 OA
ATOM     12  H   UNL     1      18.173  10.457  -4.659  1.00  0.00     0.164 HD
BRANCH  10  13
ATOM     13  CA  PHE A   2      15.657  11.312  -5.058  1.00  0.00     0.175 C 
BRANCH  13  14
ATOM     14  N   PHE A   2      14.460  11.739  -5.768  1.00  0.00    -0.343 N 
ATOM     15  C   SER A   1      13.919  13.047  -5.633  1.00  0.00     0.239 C 
ATOM     16  O   SER A   1      14.448  13.866  -4.832  1.00  0.00    -0.273 OA
ATOM     17  H   UNL     1      13.876  10.999  -6.214  1.00  0.00     0.164 HD
BRANCH  15  18
ATOM     18  CA  SER A   1      12.662  13.409  -6.389  1.00  0.00     0.167 C 
BRANCH  18  19
ATOM     19  N   SER A   1      12.455  14.858  -6.400  1.00  0.00    -0.318 NA
ATOM     20  H   UNL     1      13.316  15.335  -6.756  1.00  0.00     0.119 HD
ATOM     21  H   UNL     1      12.286  15.187  -5.421  1.00  0.00     0.119 HD
ENDBRANCH  18  19
BRANCH  18  22
ATOM     22  CB  SER A   1      12.694  12.885  -7.841  1.00  0.00     0.184 C 
BRANCH  22  23
ATOM     23  OG  SER A   1      11.438  13.059  -8.436  1.00  0.00    -0.394 OA
ATOM     24  H   UNL     1      11.540  12.786  -9.385  1.00  0.00     0.210 HD
ENDBRANCH  22  23
ENDBRANCH  18  22
ENDBRANCH  15  18
ENDBRANCH  13  14
BRANCH  13  25
ATOM     25  CB  PHE A   2      15.615   9.772  -4.885  1.00  0.00     0.070 C 
BRANCH  25  26
ATOM     26  CG  PHE A   2      14.442   9.290  -4.090  1.00  0.00    -0.045 A 
ATOM     27  CD1 PHE A   2      13.902  10.047  -3.033  1.00  0.00     0.004 A 
ATOM     28  CD2 PHE A   2      13.968   7.990  -4.310  1.00  0.00     0.004 A 
ATOM     29  CE1 PHE A   2      12.868   9.536  -2.260  1.00  0.00     0.000 A 
ATOM     30  CE2 PHE A   2      12.939   7.478  -3.521  1.00  0.00     0.000 A 
ATOM     31  CZ  PHE A   2      12.386   8.253  -2.502  1.00  0.00     0.000 A 
ENDBRANCH  25  26
ENDBRANCH  13  25
ENDBRANCH  10  13
ENDBRANCH   8   9
BRANCH   8  32
ATOM     32  CB  HIS A   3      20.179  12.252  -5.218  1.00  0.00     0.093 C 
BRANCH  32  33
ATOM     33  CG  HIS A   3      20.414  11.669  -3.848  1.00  0.00     0.061 A 
ATOM     34  ND1 HIS A   3      19.564  11.811  -2.810  1.00  0.00    -0.242 NA
ATOM     35  CD2 HIS A   3      21.493  10.903  -3.467  1.00  0.00     0.107 A 
ATOM     36  CE1 HIS A   3      20.154  11.121  -1.812  1.00  0.00     0.196 A 
ATOM     37  NE2 HIS A   3      21.322  10.562  -2.182  1.00  0.00    -0.351 N 
ATOM     38  H   UNL     1      21.959   9.981  -1.593  1.00  0.00     0.167 HD
ENDBRANCH  32  33
ENDBRANCH   8  32
ENDBRANCH   6   8
ENDBRANCH   1   6
BRANCH   2  39
ATOM     39  C   PRO A   4      22.842   8.846  -7.385  1.00  0.00     0.243 C 
ATOM     40  N   ARG A   5      23.644   7.672  -7.190  1.00  0.00    -0.343 N 
ATOM     41  O   PRO A   4      23.271   9.978  -7.031  1.00  0.00    -0.273 OA
ATOM     42  H   UNL     1      23.276   6.766  -7.558  1.00  0.00     0.164 HD
BRANCH  40  43
ATOM     43  CA  ARG A   5      25.027   7.718  -6.699  1.00  0.00     0.171 C 
BRANCH  43  44
ATOM     44  C   ARG A   5      25.977   7.389  -7.828  1.00  0.00     0.243 C 
ATOM     45  N   ASN A   6      25.807   8.023  -9.105  1.00  0.00    -0.341 N 
ATOM     46  O   ARG A   5      26.946   6.601  -7.643  1.00  0.00    -0.273 OA
ATOM     47  H   UNL     1      25.114   8.802  -9.183  1.00  0.00     0.164 HD
BRANCH  45  48
ATOM     48  CA  ASN A   6      26.484   7.539 -10.311  1.00  0.00     0.201 C 
BRANCH  48  49
ATOM     49  C   ASN A   6      26.479   8.612 -11.369  1.00  0.00     0.326 C 
ATOM     50  O   ASN A   6      25.390   9.058 -11.821  1.00  0.00    -0.250 OA
BRANCH  49  51
ATOM     51  OXT ASN A   6      27.685   9.111 -11.851  1.00  0.00    -0.480 OA
ATOM     52  H   UNL     1      27.701   9.831 -12.564  1.00  0.00     0.296 HD
ENDBRANCH  49  51
ENDBRANCH  48  49
BRANCH  48  53
ATOM     53  CB  ASN A   6      25.799   6.255 -10.813  1.00  0.00     0.136 C 
BRANCH  53  54
ATOM     54  CG  ASN A   6      26.550   5.639 -11.958  1.00  0.00     0.220 C 
ATOM     55  ND2 ASN A   6      27.726   4.868 -11.717  1.00  0.00    -0.370 N 
ATOM     56  OD1 ASN A   6      26.157   5.829 -13.140  1.00  0.00    -0.275 OA
ATOM     57  H   UNL     1      28.256   4.451 -12.515  1.00  0.00     0.159 HD
ATOM     58  H   UNL     1      28.073   4.716 -10.744  1.00  0.00     0.159 HD
ENDBRANCH  53  54
ENDBRANCH  48  53
ENDBRANCH  45  48
ENDBRANCH  43  44
BRANCH  43  59
ATOM     59  CB  ARG A   5      25.194   6.807  -5.461  1.00  0.00     0.037 C 
BRANCH  59  60
ATOM     60  CG  ARG A   5      24.771   5.346  -5.696  1.00  0.00     0.024 C 
BRANCH  60  61
ATOM     61  CD  ARG A   5      25.187   4.457  -4.519  1.00  0.00     0.116 C 
BRANCH  61  62
ATOM     62  NE  ARG A   5      24.763   3.074  -4.744  1.00  0.00    -0.357 N 
ATOM     63  CZ  ARG A   5      25.365   2.175  -5.695  1.00  0.00     0.185 C 
ATOM     64  NH2 ARG A   5      24.756   0.908  -5.938  1.00  0.00    -0.370 N 
ATOM     65  H   UNL     1      23.967   2.716  -4.170  1.00  0.00     0.163 HD
ATOM     66  H   UNL     1      25.178   0.237  -6.619  1.00  0.00     0.159 HD
ATOM     67  H   UNL     1      23.876   0.638  -5.444  1.00  0.00     0.159 HD
BRANCH  63  68
ATOM     68  NH1 ARG A   5      26.458   2.479  -6.325  1.00  0.00    -0.270 NA
ATOM     69  H   UNL     1      26.974   3.376  -6.196  1.00  0.00     0.191 HD
ENDBRANCH  63  68
ENDBRANCH  61  62
ENDBRANCH  60  61
ENDBRANCH  59  60
ENDBRANCH  43  59
ENDBRANCH  40  43
ENDBRANCH   2  39
TORSDOF 26
