REMARK SMILES CC(C)C[C@H](NC(=O)CNC(=O)[C@H](Cc1ccccc1)NC(=O)[C@@H](N)CO)C(=O)N[C@@H](CCCNC(=N)N)C(=O)N[C@@H](C)C(=O)O
REMARK SMILES IDX 7 1 8 2 6 3 9 5 10 6 11 7 12 8 13 10 21 11 22 12 23 13 24 15
REMARK SMILES IDX 25 16 26 19 27 20 14 22 15 23 16 24 20 25 17 26 19 27 18 28
REMARK SMILES IDX 5 29 28 30 30 31 29 32 31 34 39 35 41 36 40 37 42 39 43 40
REMARK SMILES IDX 44 41 45 42 46 43 32 45 33 46 34 47 35 48 36 49 38 50 37 54
REMARK SMILES IDX 4 56 2 57 1 58 3 59
REMARK H PARENT 6 4 10 9 21 14 25 17 25 18 27 21 30 33 41 38 46 44 35 51 38 52
REMARK H PARENT 38 53 37 55
ROOT
ATOM      1  C   GLY A   3       0.624   0.672   1.331  1.00  0.00     0.240 C 
ATOM      2  O   GLY A   3       0.884   1.904   1.261  1.00  0.00    -0.273 OA
ATOM      3  N   LEU A   4      -0.489   0.122   0.610  1.00  0.00    -0.343 N 
ATOM      4  H   UNL     1      -0.683  -0.901   0.701  1.00  0.00     0.164 HD
ENDROOT
BRANCH   1   5
ATOM      5  CA  GLY A   3       1.514  -0.226   2.132  1.00  0.00     0.216 C 
BRANCH   5   6
ATOM      6  N   GLY A   3       2.536  -0.813   1.271  1.00  0.00    -0.345 N 
ATOM      7  C   PHE A   2       3.686  -0.078   0.833  1.00  0.00     0.243 C 
ATOM      8  O   PHE A   2       3.882   1.098   1.249  1.00  0.00    -0.273 OA
ATOM      9  H   UNL     1       2.420  -1.807   0.968  1.00  0.00     0.164 HD
BRANCH   7  10
ATOM     10  CA  PHE A   2       4.680  -0.725  -0.097  1.00  0.00     0.175 C 
BRANCH  10  11
ATOM     11  N   PHE A   2       5.592   0.278  -0.658  1.00  0.00    -0.343 N 
ATOM     12  C   SER A   1       5.431   0.823  -1.979  1.00  0.00     0.239 C 
ATOM     13  O   SER A   1       4.530   0.381  -2.744  1.00  0.00    -0.273 OA
ATOM     14  H   UNL     1       6.287   0.723  -0.020  1.00  0.00     0.164 HD
BRANCH  12  15
ATOM     15  CA  SER A   1       6.331   1.933  -2.471  1.00  0.00     0.167 C 
BRANCH  15  16
ATOM     16  N   SER A   1       6.155   3.147  -1.671  1.00  0.00    -0.318 NA
ATOM     17  H   UNL     1       6.415   2.960  -0.674  1.00  0.00     0.119 HD
ATOM     18  H   UNL     1       5.144   3.420  -1.687  1.00  0.00     0.119 HD
ENDBRANCH  15  16
BRANCH  15  19
ATOM     19  CB  SER A   1       7.806   1.503  -2.468  1.00  0.00     0.184 C 
BRANCH  19  20
ATOM     20  OG  SER A   1       8.000   0.379  -3.283  1.00  0.00    -0.394 OA
ATOM     21  H   UNL     1       7.958   0.699  -4.223  1.00  0.00     0.210 HD
ENDBRANCH  19  20
ENDBRANCH  15  19
ENDBRANCH  12  15
ENDBRANCH  10  11
BRANCH  10  22
ATOM     22  CB  PHE A   2       5.468  -1.854   0.598  1.00  0.00     0.070 C 
BRANCH  22  23
ATOM     23  CG  PHE A   2       6.276  -1.391   1.788  1.00  0.00    -0.045 A 
ATOM     24  CD1 PHE A   2       5.682  -1.314   3.060  1.00  0.00     0.004 A 
ATOM     25  CD2 PHE A   2       7.625  -1.027   1.634  1.00  0.00     0.004 A 
ATOM     26  CE1 PHE A   2       6.427  -0.875   4.158  1.00  0.00     0.000 A 
ATOM     27  CE2 PHE A   2       8.368  -0.594   2.736  1.00  0.00     0.000 A 
ATOM     28  CZ  PHE A   2       7.769  -0.520   3.997  1.00  0.00     0.000 A 
ENDBRANCH  22  23
ENDBRANCH  10  22
ENDBRANCH   7  10
ENDBRANCH   5   6
ENDBRANCH   1   5
BRANCH   3  29
ATOM     29  CA  LEU A   4      -1.321   0.932  -0.284  1.00  0.00     0.171 C 
BRANCH  29  30
ATOM     30  C   LEU A   4      -2.713   0.341  -0.401  1.00  0.00     0.243 C 
ATOM     31  N   ARG A   5      -3.378  -0.150   0.778  1.00  0.00    -0.343 N 
ATOM     32  O   LEU A   4      -3.316   0.364  -1.508  1.00  0.00    -0.273 OA
ATOM     33  H   UNL     1      -2.879  -0.055   1.691  1.00  0.00     0.164 HD
BRANCH  31  34
ATOM     34  CA  ARG A   5      -4.732  -0.721   0.828  1.00  0.00     0.171 C 
BRANCH  34  35
ATOM     35  C   ARG A   5      -4.798  -2.056   0.129  1.00  0.00     0.243 C 
ATOM     36  N   ALA A   6      -5.566  -3.124   0.705  1.00  0.00    -0.341 N 
ATOM     37  O   ARG A   5      -4.241  -2.214  -0.993  1.00  0.00    -0.273 OA
ATOM     38  H   UNL     1      -6.065  -2.951   1.609  1.00  0.00     0.164 HD
BRANCH  36  39
ATOM     39  CA  ALA A   6      -5.754  -4.407   0.022  1.00  0.00     0.189 C 
ATOM     40  CB  ALA A   6      -6.305  -5.455   0.991  1.00  0.00     0.043 C 
BRANCH  39  41
ATOM     41  C   ALA A   6      -6.691  -4.246  -1.141  1.00  0.00     0.325 C 
ATOM     42  O   ALA A   6      -7.686  -3.475  -1.059  1.00  0.00    -0.250 OA
BRANCH  41  43
ATOM     43  OXT ALA A   6      -6.488  -4.994  -2.298  1.00  0.00    -0.480 OA
ATOM     44  H   UNL     1      -7.118  -4.911  -3.087  1.00  0.00     0.296 HD
ENDBRANCH  41  43
ENDBRANCH  39  41
ENDBRANCH  36  39
ENDBRANCH  34  35
BRANCH  34  45
ATOM     45  CB  ARG A   5      -5.808   0.240   0.284  1.00  0.00     0.037 C 
BRANCH  45  46
ATOM     46  CG  ARG A   5      -5.772   1.606   0.986  1.00  0.00     0.024 C 
BRANCH  46  47
ATOM     47  CD  ARG A   5      -6.950   2.480   0.546  1.00  0.00     0.116 C 
BRANCH  47  48
ATOM     48  NE  ARG A   5      -6.898   3.780   1.214  1.00  0.00    -0.357 N 
ATOM     49  CZ  ARG A   5      -5.999   4.829   0.816  1.00  0.00     0.185 C 
ATOM     50  NH2 ARG A   5      -5.977   6.055   1.549  1.00  0.00    -0.370 N 
ATOM     51  H   UNL     1      -7.577   3.967   1.987  1.00  0.00     0.163 HD
ATOM     52  H   UNL     1      -6.600   6.187   2.379  1.00  0.00     0.159 HD
ATOM     53  H   UNL     1      -5.343   6.836   1.269  1.00  0.00     0.159 HD
BRANCH  49  54
ATOM     54  NH1 ARG A   5      -5.215   4.666  -0.203  1.00  0.00    -0.270 NA
ATOM     55  H   UNL     1      -4.555   5.416  -0.515  1.00  0.00     0.191 HD
ENDBRANCH  49  54
ENDBRANCH  47  48
ENDBRANCH  46  47
ENDBRANCH  45  46
ENDBRANCH  34  45
ENDBRANCH  31  34
ENDBRANCH  29  30
BRANCH  29  56
ATOM     56  CB  LEU A   4      -0.617   1.150  -1.647  1.00  0.00     0.038 C 
BRANCH  56  57
ATOM     57  CG  LEU A   4      -0.331  -0.141  -2.462  1.00  0.00    -0.015 C 
ATOM     58  CD1 LEU A   4      -0.239   0.190  -3.956  1.00  0.00     0.007 C 
ATOM     59  CD2 LEU A   4       0.973  -0.830  -2.020  1.00  0.00     0.007 C 
ENDBRANCH  56  57
ENDBRANCH  29  56
ENDBRANCH   3  29
TORSDOF 24
