REMARK SMILES CC(C)C[C@H](NC(=O)[C@H](CCCNC(=N)N)NC(=O)[C@H](Cc1ccccc1)NC(=O)[C@@H](N)Cc1c[nH]cn1)C(=O)N[C@@H](CCCNC(=N)N)C(=O)N[C@@H](CC(N)=O)C(=O)O
REMARK SMILES IDX 7 1 8 2 6 3 9 5 17 6 18 7 19 8 20 10 28 11 29 12 30 13 31 15
REMARK SMILES IDX 32 16 33 19 34 20 38 21 35 22 37 23 36 24 21 26 22 27 23 28
REMARK SMILES IDX 27 29 24 30 26 31 25 32 10 33 11 34 12 35 13 36 14 37 16 38
REMARK SMILES IDX 15 42 5 44 39 45 41 46 40 47 42 49 50 50 52 51 51 52 53 54
REMARK SMILES IDX 58 55 59 56 60 57 54 59 55 60 56 61 57 62 43 65 44 66 45 67
REMARK SMILES IDX 46 68 47 69 49 70 48 74 4 76 2 77 1 78 3 79
REMARK H PARENT 6 4 17 9 28 14 32 17 32 18 36 25 13 39 16 40 16 41 15 43 41 48
REMARK H PARENT 52 53 60 58 56 63 56 64 46 71 49 72 49 73 48 75
ROOT
ATOM      1  C   ARG A   3       0.428   0.487   1.514  1.00  0.00     0.243 C 
ATOM      2  O   ARG A   3       0.088   1.572   0.969  1.00  0.00    -0.273 OA
ATOM      3  N   LEU A   4      -0.257  -0.728   1.181  1.00  0.00    -0.343 N 
ATOM      4  H   UNL     1      -0.067  -1.587   1.743  1.00  0.00     0.164 HD
ENDROOT
BRANCH   1   5
ATOM      5  CA  ARG A   3       1.589   0.471   2.476  1.00  0.00     0.171 C 
BRANCH   5   6
ATOM      6  N   ARG A   3       2.780   0.995   1.804  1.00  0.00    -0.343 N 
ATOM      7  C   PHE A   2       3.427   0.285   0.737  1.00  0.00     0.243 C 
ATOM      8  O   PHE A   2       2.939  -0.796   0.306  1.00  0.00    -0.273 OA
ATOM      9  H   UNL     1       3.187   1.910   2.107  1.00  0.00     0.164 HD
BRANCH   7  10
ATOM     10  CA  PHE A   2       4.657   0.861   0.091  1.00  0.00     0.175 C 
BRANCH  10  11
ATOM     11  N   PHE A   2       5.530  -0.220  -0.381  1.00  0.00    -0.343 N 
ATOM     12  C   HIS A   1       6.561  -0.790   0.437  1.00  0.00     0.237 C 
ATOM     13  O   HIS A   1       6.582  -0.563   1.678  1.00  0.00    -0.273 OA
ATOM     14  H   UNL     1       5.362  -0.612  -1.334  1.00  0.00     0.164 HD
BRANCH  12  15
ATOM     15  CA  HIS A   1       7.639  -1.656  -0.176  1.00  0.00     0.147 C 
BRANCH  15  16
ATOM     16  N   HIS A   1       7.083  -2.915  -0.678  1.00  0.00    -0.320 NA
ATOM     17  H   UNL     1       6.576  -3.396   0.103  1.00  0.00     0.119 HD
ATOM     18  H   UNL     1       6.389  -2.725  -1.441  1.00  0.00     0.119 HD
ENDBRANCH  15  16
BRANCH  15  19
ATOM     19  CB  HIS A   1       8.360  -0.886  -1.300  1.00  0.00     0.086 C 
BRANCH  19  20
ATOM     20  CG  HIS A   1       9.519  -1.638  -1.886  1.00  0.00     0.060 A 
ATOM     21  ND1 HIS A   1      10.125  -2.704  -1.320  1.00  0.00    -0.242 NA
ATOM     22  CD2 HIS A   1      10.186  -1.279  -3.037  1.00  0.00     0.107 A 
ATOM     23  CE1 HIS A   1      11.140  -2.982  -2.164  1.00  0.00     0.196 A 
ATOM     24  NE2 HIS A   1      11.203  -2.134  -3.209  1.00  0.00    -0.351 N 
ATOM     25  H   UNL     1      11.906  -2.135  -3.980  1.00  0.00     0.167 HD
ENDBRANCH  19  20
ENDBRANCH  15  19
ENDBRANCH  12  15
ENDBRANCH  10  11
BRANCH  10  26
ATOM     26  CB  PHE A   2       4.257   1.780  -1.078  1.00  0.00     0.070 C 
BRANCH  26  27
ATOM     27  CG  PHE A   2       5.470   2.425  -1.703  1.00  0.00    -0.045 A 
ATOM     28  CD1 PHE A   2       6.035   3.577  -1.131  1.00  0.00     0.004 A 
ATOM     29  CD2 PHE A   2       6.094   1.835  -2.816  1.00  0.00     0.004 A 
ATOM     30  CE1 PHE A   2       7.189   4.144  -1.681  1.00  0.00     0.000 A 
ATOM     31  CE2 PHE A   2       7.252   2.401  -3.357  1.00  0.00     0.000 A 
ATOM     32  CZ  PHE A   2       7.800   3.556  -2.790  1.00  0.00     0.000 A 
ENDBRANCH  26  27
ENDBRANCH  10  26
ENDBRANCH   7  10
ENDBRANCH   5   6
BRANCH   5  33
ATOM     33  CB  ARG A   3       1.273   1.310   3.731  1.00  0.00     0.037 C 
BRANCH  33  34
ATOM     34  CG  ARG A   3       0.200   0.687   4.651  1.00  0.00     0.024 C 
BRANCH  34  35
ATOM     35  CD  ARG A   3       0.759  -0.378   5.615  1.00  0.00     0.116 C 
BRANCH  35  36
ATOM     36  NE  ARG A   3       0.817  -1.707   5.001  1.00  0.00    -0.357 N 
ATOM     37  CZ  ARG A   3       1.433  -2.841   5.630  1.00  0.00     0.185 C 
ATOM     38  NH2 ARG A   3       1.551  -4.065   4.905  1.00  0.00    -0.370 N 
ATOM     39  H   UNL     1       0.378  -1.855   4.066  1.00  0.00     0.163 HD
ATOM     40  H   UNL     1       1.959  -4.910   5.361  1.00  0.00     0.159 HD
ATOM     41  H   UNL     1       1.227  -4.130   3.913  1.00  0.00     0.159 HD
BRANCH  37  42
ATOM     42  NH1 ARG A   3       1.864  -2.788   6.854  1.00  0.00    -0.270 NA
ATOM     43  H   UNL     1       1.797  -1.934   7.452  1.00  0.00     0.191 HD
ENDBRANCH  37  42
ENDBRANCH  35  36
ENDBRANCH  34  35
ENDBRANCH  33  34
ENDBRANCH   5  33
ENDBRANCH   1   5
BRANCH   3  44
ATOM     44  CA  LEU A   4      -1.238  -0.791   0.094  1.00  0.00     0.171 C 
BRANCH  44  45
ATOM     45  C   LEU A   4      -2.579  -0.312   0.581  1.00  0.00     0.243 C 
ATOM     46  N   ARG A   5      -3.419   0.467  -0.286  1.00  0.00    -0.343 N 
ATOM     47  O   LEU A   4      -2.986  -0.645   1.730  1.00  0.00    -0.273 OA
ATOM     48  H   UNL     1      -3.097   0.627  -1.268  1.00  0.00     0.164 HD
BRANCH  46  49
ATOM     49  CA  ARG A   5      -4.757   0.921   0.117  1.00  0.00     0.171 C 
BRANCH  49  50
ATOM     50  C   ARG A   5      -5.778  -0.167  -0.084  1.00  0.00     0.243 C 
ATOM     51  N   ASN A   6      -7.029  -0.107   0.616  1.00  0.00    -0.341 N 
ATOM     52  O   ARG A   5      -5.556  -1.091  -0.916  1.00  0.00    -0.273 OA
ATOM     53  H   UNL     1      -7.174   0.678   1.294  1.00  0.00     0.164 HD
BRANCH  51  54
ATOM     54  CA  ASN A   6      -8.184  -0.935   0.251  1.00  0.00     0.201 C 
BRANCH  54  55
ATOM     55  C   ASN A   6      -9.058  -0.169  -0.703  1.00  0.00     0.326 C 
ATOM     56  O   ASN A   6      -9.512   0.961  -0.384  1.00  0.00    -0.250 OA
BRANCH  55  57
ATOM     57  OXT ASN A   6      -9.396  -0.731  -1.930  1.00  0.00    -0.480 OA
ATOM     58  H   UNL     1     -10.010  -0.240  -2.569  1.00  0.00     0.296 HD
ENDBRANCH  55  57
ENDBRANCH  54  55
BRANCH  54  59
ATOM     59  CB  ASN A   6      -8.954  -1.339   1.521  1.00  0.00     0.136 C 
BRANCH  59  60
ATOM     60  CG  ASN A   6     -10.115  -2.256   1.226  1.00  0.00     0.220 C 
ATOM     61  ND2 ASN A   6     -11.361  -2.078   1.904  1.00  0.00    -0.370 N 
ATOM     62  OD1 ASN A   6      -9.967  -3.230   0.437  1.00  0.00    -0.275 OA
ATOM     63  H   UNL     1     -12.150  -2.739   1.734  1.00  0.00     0.159 HD
ATOM     64  H   UNL     1     -11.481  -1.316   2.614  1.00  0.00     0.159 HD
ENDBRANCH  59  60
ENDBRANCH  54  59
ENDBRANCH  51  54
ENDBRANCH  49  50
BRANCH  49  65
ATOM     65  CB  ARG A   5      -5.156   2.219  -0.619  1.00  0.00     0.037 C 
BRANCH  65  66
ATOM     66  CG  ARG A   5      -5.465   2.029  -2.118  1.00  0.00     0.024 C 
BRANCH  66  67
ATOM     67  CD  ARG A   5      -5.814   3.354  -2.806  1.00  0.00     0.116 C 
BRANCH  67  68
ATOM     68  NE  ARG A   5      -7.142   3.833  -2.416  1.00  0.00    -0.357 N 
ATOM     69  CZ  ARG A   5      -7.724   5.048  -2.922  1.00  0.00     0.185 C 
ATOM     70  NH2 ARG A   5      -9.022   5.439  -2.480  1.00  0.00    -0.370 N 
ATOM     71  H   UNL     1      -7.716   3.259  -1.756  1.00  0.00     0.163 HD
ATOM     72  H   UNL     1      -9.459   6.321  -2.834  1.00  0.00     0.159 HD
ATOM     73  H   UNL     1      -9.552   4.855  -1.793  1.00  0.00     0.159 HD
BRANCH  69  74
ATOM     74  NH1 ARG A   5      -7.093   5.804  -3.768  1.00  0.00    -0.270 NA
ATOM     75  H   UNL     1      -6.140   5.585  -4.136  1.00  0.00     0.191 HD
ENDBRANCH  69  74
ENDBRANCH  67  68
ENDBRANCH  66  67
ENDBRANCH  65  66
ENDBRANCH  49  65
ENDBRANCH  46  49
ENDBRANCH  44  45
BRANCH  44  76
ATOM     76  CB  LEU A   4      -1.369  -2.228  -0.456  1.00  0.00     0.038 C 
BRANCH  76  77
ATOM     77  CG  LEU A   4      -0.043  -2.824  -0.990  1.00  0.00    -0.015 C 
ATOM     78  CD1 LEU A   4       0.486  -2.057  -2.209  1.00  0.00     0.007 C 
ATOM     79  CD2 LEU A   4      -0.252  -4.298  -1.361  1.00  0.00     0.007 C 
ENDBRANCH  76  77
ENDBRANCH  44  76
ENDBRANCH   3  44
TORSDOF 31
