REMARK SMILES CC(C)C[C@H](NC(=O)[C@H](Cc1c[nH]cn1)NC(=O)[C@@H](NC(=O)[C@@H](N)CO)C(C)C)C(=O)N[C@@H](CCCNC(=N)N)C(=O)N[C@@H](CC(N)=O)C(=O)O
REMARK SMILES IDX 7 1 8 2 6 3 9 5 16 6 17 7 18 8 19 10 20 11 21 12 22 13 23 15
REMARK SMILES IDX 24 16 25 19 26 20 27 22 28 23 29 24 10 25 11 26 15 27 12 28
REMARK SMILES IDX 14 29 13 30 5 32 30 33 32 34 31 35 33 37 41 38 43 39 42 40
REMARK SMILES IDX 44 42 49 43 50 44 51 45 45 47 46 48 47 49 48 50 34 53 35 54
REMARK SMILES IDX 36 55 37 56 38 57 40 58 39 62 4 64 2 65 1 66 3 67
REMARK H PARENT 6 4 16 9 20 14 24 17 24 18 26 21 13 31 32 36 43 41 51 46 47 51
REMARK H PARENT 47 52 37 59 40 60 40 61 39 63
ROOT
ATOM      1  C   HIS A   3      20.035  10.098  -6.455  1.00  0.00     0.243 C 
ATOM      2  O   HIS A   3      20.152   9.184  -5.591  1.00  0.00    -0.273 OA
ATOM      3  N   LEU A   4      20.556   9.925  -7.765  1.00  0.00    -0.342 N 
ATOM      4  H   UNL     1      20.393  10.665  -8.486  1.00  0.00     0.164 HD
ENDROOT
BRANCH   1   5
ATOM      5  CA  HIS A   3      19.348  11.382  -6.120  1.00  0.00     0.177 C 
BRANCH   5   6
ATOM      6  N   HIS A   3      18.103  11.096  -5.454  1.00  0.00    -0.342 N 
ATOM      7  C   VAL A   2      16.880  11.730  -5.758  1.00  0.00     0.243 C 
ATOM      8  O   VAL A   2      16.872  12.769  -6.477  1.00  0.00    -0.273 OA
ATOM      9  H   UNL     1      18.197  10.733  -4.487  1.00  0.00     0.164 HD
BRANCH   7  10
ATOM     10  CA  VAL A   2      15.641  11.240  -5.055  1.00  0.00     0.173 C 
BRANCH  10  11
ATOM     11  N   VAL A   2      14.459  11.727  -5.765  1.00  0.00    -0.343 N 
ATOM     12  C   SER A   1      13.927  13.040  -5.627  1.00  0.00     0.239 C 
ATOM     13  O   SER A   1      14.460  13.853  -4.823  1.00  0.00    -0.273 OA
ATOM     14  H   UNL     1      13.895  11.024  -6.287  1.00  0.00     0.164 HD
BRANCH  12  15
ATOM     15  CA  SER A   1      12.669  13.411  -6.385  1.00  0.00     0.167 C 
BRANCH  15  16
ATOM     16  N   SER A   1      12.465  14.860  -6.388  1.00  0.00    -0.318 NA
ATOM     17  H   UNL     1      12.300  15.185  -5.407  1.00  0.00     0.119 HD
ATOM     18  H   UNL     1      13.326  15.336  -6.745  1.00  0.00     0.119 HD
ENDBRANCH  15  16
BRANCH  15  19
ATOM     19  CB  SER A   1      12.692  12.896  -7.844  1.00  0.00     0.184 C 
BRANCH  19  20
ATOM     20  OG  SER A   1      11.435  13.058  -8.440  1.00  0.00    -0.394 OA
ATOM     21  H   UNL     1      11.378  14.004  -8.737  1.00  0.00     0.210 HD
ENDBRANCH  19  20
ENDBRANCH  15  19
ENDBRANCH  12  15
ENDBRANCH  10  11
BRANCH  10  22
ATOM     22  CB  VAL A   2      15.525   9.667  -4.961  1.00  0.00     0.015 C 
ATOM     23  CG1 VAL A   2      14.342   9.299  -4.064  1.00  0.00     0.010 C 
ATOM     24  CG2 VAL A   2      16.707   8.813  -4.456  1.00  0.00     0.010 C 
ENDBRANCH  10  22
ENDBRANCH   7  10
ENDBRANCH   5   6
BRANCH   5  25
ATOM     25  CB  HIS A   3      20.211  12.273  -5.214  1.00  0.00     0.093 C 
BRANCH  25  26
ATOM     26  CG  HIS A   3      20.458  11.701  -3.839  1.00  0.00     0.061 A 
ATOM     27  ND1 HIS A   3      19.685  11.959  -2.764  1.00  0.00    -0.242 NA
ATOM     28  CD2 HIS A   3      21.494  10.866  -3.480  1.00  0.00     0.107 A 
ATOM     29  CE1 HIS A   3      20.269  11.258  -1.769  1.00  0.00     0.196 A 
ATOM     30  NE2 HIS A   3      21.363  10.587  -2.175  1.00  0.00    -0.351 N 
ATOM     31  H   UNL     1      21.979   9.977  -1.594  1.00  0.00     0.167 HD
ENDBRANCH  25  26
ENDBRANCH   5  25
ENDBRANCH   1   5
BRANCH   3  32
ATOM     32  CA  LEU A   4      21.344   8.763  -8.133  1.00  0.00     0.171 C 
BRANCH  32  33
ATOM     33  C   LEU A   4      22.710   9.218  -8.516  1.00  0.00     0.243 C 
ATOM     34  N   ARG A   5      23.820   8.720  -7.784  1.00  0.00    -0.343 N 
ATOM     35  O   LEU A   4      22.874  10.033  -9.466  1.00  0.00    -0.273 OA
ATOM     36  H   UNL     1      23.665   8.031  -7.014  1.00  0.00     0.164 HD
BRANCH  34  37
ATOM     37  CA  ARG A   5      25.184   9.122  -8.073  1.00  0.00     0.171 C 
BRANCH  37  38
ATOM     38  C   ARG A   5      25.899   7.968  -8.685  1.00  0.00     0.243 C 
ATOM     39  N   ASN A   6      25.913   7.864 -10.102  1.00  0.00    -0.341 N 
ATOM     40  O   ARG A   5      26.447   7.087  -7.969  1.00  0.00    -0.273 OA
ATOM     41  H   UNL     1      25.489   8.647 -10.651  1.00  0.00     0.164 HD
BRANCH  39  42
ATOM     42  CA  ASN A   6      26.542   6.751 -10.804  1.00  0.00     0.201 C 
BRANCH  42  43
ATOM     43  C   ASN A   6      27.992   6.642 -10.415  1.00  0.00     0.326 C 
ATOM     44  O   ASN A   6      28.794   7.579 -10.677  1.00  0.00    -0.250 OA
BRANCH  43  45
ATOM     45  OXT ASN A   6      28.451   5.499  -9.768  1.00  0.00    -0.480 OA
ATOM     46  H   UNL     1      29.423   5.409  -9.499  1.00  0.00     0.296 HD
ENDBRANCH  43  45
ENDBRANCH  42  43
BRANCH  42  47
ATOM     47  CB  ASN A   6      26.424   6.947 -12.323  1.00  0.00     0.136 C 
BRANCH  47  48
ATOM     48  CG  ASN A   6      25.010   7.180 -12.773  1.00  0.00     0.220 C 
ATOM     49  ND2 ASN A   6      24.753   8.090 -13.833  1.00  0.00    -0.370 N 
ATOM     50  OD1 ASN A   6      24.053   6.558 -12.243  1.00  0.00    -0.275 OA
ATOM     51  H   UNL     1      23.775   8.258 -14.156  1.00  0.00     0.159 HD
ATOM     52  H   UNL     1      25.533   8.600 -14.306  1.00  0.00     0.159 HD
ENDBRANCH  47  48
ENDBRANCH  42  47
ENDBRANCH  39  42
ENDBRANCH  37  38
BRANCH  37  53
ATOM     53  CB  ARG A   5      25.862   9.605  -6.796  1.00  0.00     0.037 C 
BRANCH  53  54
ATOM     54  CG  ARG A   5      25.166  10.861  -6.272  1.00  0.00     0.024 C 
BRANCH  54  55
ATOM     55  CD  ARG A   5      25.840  11.391  -5.015  1.00  0.00     0.116 C 
BRANCH  55  56
ATOM     56  NE  ARG A   5      25.378  10.684  -3.823  1.00  0.00    -0.357 N 
ATOM     57  CZ  ARG A   5      25.468  11.279  -2.527  1.00  0.00     0.185 C 
ATOM     58  NH2 ARG A   5      26.103  12.542  -2.350  1.00  0.00    -0.370 N 
ATOM     59  H   UNL     1      24.905   9.757  -3.921  1.00  0.00     0.163 HD
ATOM     60  H   UNL     1      26.688  12.985  -3.091  1.00  0.00     0.159 HD
ATOM     61  H   UNL     1      26.080  13.007  -1.415  1.00  0.00     0.159 HD
BRANCH  57  62
ATOM     62  NH1 ARG A   5      24.962  10.676  -1.499  1.00  0.00    -0.270 NA
ATOM     63  H   UNL     1      24.488   9.749  -1.582  1.00  0.00     0.191 HD
ENDBRANCH  57  62
ENDBRANCH  55  56
ENDBRANCH  54  55
ENDBRANCH  53  54
ENDBRANCH  37  53
ENDBRANCH  34  37
ENDBRANCH  32  33
BRANCH  32  64
ATOM     64  CB  LEU A   4      20.652   8.001  -9.267  1.00  0.00     0.038 C 
BRANCH  64  65
ATOM     65  CG  LEU A   4      21.447   6.773  -9.766  1.00  0.00    -0.015 C 
ATOM     66  CD1 LEU A   4      21.762   5.780  -8.638  1.00  0.00     0.007 C 
ATOM     67  CD2 LEU A   4      20.662   6.070 -10.876  1.00  0.00     0.007 C 
ENDBRANCH  64  65
ENDBRANCH  32  64
ENDBRANCH   3  32
TORSDOF 27
