REMARK SMILES CC(C)C[C@H](NC(=O)[C@H](CCCNC(=N)N)NC(=O)[C@@H]1CCCN1C(=O)[C@@H](N)CO)C(=O)N[C@@H](CCCNC(=N)N)C(=O)N[C@@H](CC(N)=O)C(=O)O
REMARK SMILES IDX 7 1 8 2 6 3 9 5 17 6 18 7 19 8 20 10 24 11 23 12 21 13 22 14
REMARK SMILES IDX 25 15 26 16 27 17 28 18 29 21 30 22 10 24 11 25 12 26 13 27
REMARK SMILES IDX 14 28 16 29 15 33 5 35 31 36 33 37 32 38 34 40 42 41 44 42
REMARK SMILES IDX 43 43 45 45 50 46 51 47 52 48 46 50 47 51 48 52 49 53 35 56
REMARK SMILES IDX 36 57 37 58 38 59 39 60 41 61 40 65 4 67 2 68 1 69 3 70
REMARK H PARENT 6 4 17 9 28 19 28 20 30 23 13 30 16 31 16 32 15 34 33 39 44 44
REMARK H PARENT 52 49 48 54 48 55 38 62 41 63 41 64 40 66
ROOT
ATOM      1  C   ARG A   3      20.026  10.070  -6.462  1.00  0.00     0.243 C 
ATOM      2  O   ARG A   3      20.156   9.150  -5.608  1.00  0.00    -0.273 OA
ATOM      3  N   LEU A   4      20.566   9.923  -7.766  1.00  0.00    -0.343 N 
ATOM      4  H   UNL     1      20.414  10.674  -8.478  1.00  0.00     0.164 HD
ENDROOT
BRANCH   1   5
ATOM      5  CA  ARG A   3      19.295  11.325  -6.124  1.00  0.00     0.171 C 
BRANCH   5   6
ATOM      6  N   ARG A   3      18.016  10.997  -5.515  1.00  0.00    -0.343 N 
ATOM      7  C   PRO A   2      16.858  11.792  -5.734  1.00  0.00     0.243 C 
ATOM      8  O   PRO A   2      16.916  12.819  -6.463  1.00  0.00    -0.273 OA
ATOM      9  H   UNL     1      17.967  10.225  -4.811  1.00  0.00     0.164 HD
BRANCH   7  10
ATOM     10  CA  PRO A   2      15.563  11.380  -5.098  1.00  0.00     0.174 C 
ATOM     11  N   PRO A   2      14.891  12.542  -4.532  1.00  0.00    -0.329 N 
ATOM     12  CD  PRO A   2      13.670  12.886  -5.247  1.00  0.00     0.120 C 
ATOM     13  CB  PRO A   2      14.591  10.812  -6.134  1.00  0.00     0.037 C 
ATOM     14  CG  PRO A   2      13.606  11.938  -6.439  1.00  0.00     0.024 C 
BRANCH  11  15
ATOM     15  C   SER A   1      15.345  13.200  -3.331  1.00  0.00     0.242 C 
ATOM     16  O   SER A   1      16.379  12.772  -2.746  1.00  0.00    -0.273 OA
BRANCH  15  17
ATOM     17  CA  SER A   1      14.563  14.337  -2.712  1.00  0.00     0.167 C 
BRANCH  17  18
ATOM     18  N   SER A   1      13.552  13.783  -1.809  1.00  0.00    -0.318 NA
ATOM     19  H   UNL     1      12.895  14.546  -1.525  1.00  0.00     0.119 HD
ATOM     20  H   UNL     1      14.017  13.422  -0.943  1.00  0.00     0.119 HD
ENDBRANCH  17  18
BRANCH  17  21
ATOM     21  CB  SER A   1      15.491  15.333  -1.984  1.00  0.00     0.184 C 
BRANCH  21  22
ATOM     22  OG  SER A   1      14.768  16.455  -1.550  1.00  0.00    -0.394 OA
ATOM     23  H   UNL     1      14.433  16.243  -0.641  1.00  0.00     0.210 HD
ENDBRANCH  21  22
ENDBRANCH  17  21
ENDBRANCH  15  17
ENDBRANCH  11  15
ENDBRANCH   7  10
ENDBRANCH   5   6
BRANCH   5  24
ATOM     24  CB  ARG A   3      20.133  12.240  -5.222  1.00  0.00     0.037 C 
BRANCH  24  25
ATOM     25  CG  ARG A   3      20.392  11.695  -3.800  1.00  0.00     0.024 C 
BRANCH  25  26
ATOM     26  CD  ARG A   3      21.802  12.048  -3.316  1.00  0.00     0.116 C 
BRANCH  26  27
ATOM     27  NE  ARG A   3      22.012  13.496  -3.281  1.00  0.00    -0.357 N 
ATOM     28  CZ  ARG A   3      21.414  14.392  -2.326  1.00  0.00     0.185 C 
ATOM     29  NH2 ARG A   3      21.563  15.801  -2.503  1.00  0.00    -0.370 N 
ATOM     30  H   UNL     1      22.644  13.906  -4.006  1.00  0.00     0.163 HD
ATOM     31  H   UNL     1      22.085  16.180  -3.324  1.00  0.00     0.159 HD
ATOM     32  H   UNL     1      21.147  16.469  -1.818  1.00  0.00     0.159 HD
BRANCH  28  33
ATOM     33  NH1 ARG A   3      20.763  13.954  -1.293  1.00  0.00    -0.270 NA
ATOM     34  H   UNL     1      20.623  12.942  -1.082  1.00  0.00     0.191 HD
ENDBRANCH  28  33
ENDBRANCH  26  27
ENDBRANCH  25  26
ENDBRANCH  24  25
ENDBRANCH   5  24
ENDBRANCH   1   5
BRANCH   3  35
ATOM     35  CA  LEU A   4      21.349   8.762  -8.140  1.00  0.00     0.171 C 
BRANCH  35  36
ATOM     36  C   LEU A   4      22.714   9.217  -8.521  1.00  0.00     0.243 C 
ATOM     37  N   ARG A   5      23.823   8.721  -7.785  1.00  0.00    -0.343 N 
ATOM     38  O   LEU A   4      22.879  10.033  -9.469  1.00  0.00    -0.273 OA
ATOM     39  H   UNL     1      23.667   8.032  -7.014  1.00  0.00     0.164 HD
BRANCH  37  40
ATOM     40  CA  ARG A   5      25.186   9.122  -8.072  1.00  0.00     0.171 C 
BRANCH  40  41
ATOM     41  C   ARG A   5      25.900   7.968  -8.685  1.00  0.00     0.243 C 
ATOM     42  N   ASN A   6      25.913   7.865 -10.102  1.00  0.00    -0.341 N 
ATOM     43  O   ARG A   5      26.449   7.089  -7.968  1.00  0.00    -0.273 OA
ATOM     44  H   UNL     1      25.490   8.648 -10.651  1.00  0.00     0.164 HD
BRANCH  42  45
ATOM     45  CA  ASN A   6      26.542   6.752 -10.804  1.00  0.00     0.201 C 
BRANCH  45  46
ATOM     46  C   ASN A   6      27.992   6.642 -10.415  1.00  0.00     0.326 C 
ATOM     47  O   ASN A   6      28.794   7.579 -10.677  1.00  0.00    -0.250 OA
BRANCH  46  48
ATOM     48  OXT ASN A   6      28.450   5.499  -9.767  1.00  0.00    -0.480 OA
ATOM     49  H   UNL     1      29.423   5.407  -9.500  1.00  0.00     0.296 HD
ENDBRANCH  46  48
ENDBRANCH  45  46
BRANCH  45  50
ATOM     50  CB  ASN A   6      26.423   6.946 -12.324  1.00  0.00     0.136 C 
BRANCH  50  51
ATOM     51  CG  ASN A   6      25.009   7.179 -12.772  1.00  0.00     0.220 C 
ATOM     52  ND2 ASN A   6      24.749   8.089 -13.832  1.00  0.00    -0.370 N 
ATOM     53  OD1 ASN A   6      24.052   6.557 -12.241  1.00  0.00    -0.275 OA
ATOM     54  H   UNL     1      25.526   8.601 -14.307  1.00  0.00     0.159 HD
ATOM     55  H   UNL     1      23.769   8.255 -14.153  1.00  0.00     0.159 HD
ENDBRANCH  50  51
ENDBRANCH  45  50
ENDBRANCH  42  45
ENDBRANCH  40  41
BRANCH  40  56
ATOM     56  CB  ARG A   5      25.861   9.607  -6.794  1.00  0.00     0.037 C 
BRANCH  56  57
ATOM     57  CG  ARG A   5      25.164  10.861  -6.270  1.00  0.00     0.024 C 
BRANCH  57  58
ATOM     58  CD  ARG A   5      25.836  11.395  -5.014  1.00  0.00     0.116 C 
BRANCH  58  59
ATOM     59  NE  ARG A   5      25.377  10.687  -3.821  1.00  0.00    -0.357 N 
ATOM     60  CZ  ARG A   5      25.468  11.281  -2.526  1.00  0.00     0.185 C 
ATOM     61  NH2 ARG A   5      26.106  12.546  -2.350  1.00  0.00    -0.370 N 
ATOM     62  H   UNL     1      24.895   9.764  -3.914  1.00  0.00     0.163 HD
ATOM     63  H   UNL     1      26.699  12.981  -3.089  1.00  0.00     0.159 HD
ATOM     64  H   UNL     1      26.074  13.024  -1.422  1.00  0.00     0.159 HD
BRANCH  60  65
ATOM     65  NH1 ARG A   5      24.954  10.669  -1.508  1.00  0.00    -0.270 NA
ATOM     66  H   UNL     1      24.995  11.072  -0.545  1.00  0.00     0.191 HD
ENDBRANCH  60  65
ENDBRANCH  58  59
ENDBRANCH  57  58
ENDBRANCH  56  57
ENDBRANCH  40  56
ENDBRANCH  37  40
ENDBRANCH  35  36
BRANCH  35  67
ATOM     67  CB  LEU A   4      20.655   8.003  -9.273  1.00  0.00     0.038 C 
BRANCH  67  68
ATOM     68  CG  LEU A   4      21.447   6.772  -9.768  1.00  0.00    -0.015 C 
ATOM     69  CD1 LEU A   4      21.763   5.780  -8.639  1.00  0.00     0.007 C 
ATOM     70  CD2 LEU A   4      20.661   6.069 -10.878  1.00  0.00     0.007 C 
ENDBRANCH  67  68
ENDBRANCH  35  67
ENDBRANCH   3  35
TORSDOF 29
