REMARK SMILES C[C@H](NC(=O)[C@H](Cc1ccccc1)NC(=O)[C@@H](N)CO)C(=O)N1CCC[C@H]1C(=O)N[C@@H](CCCNC(=N)N)C(=O)N[C@@H](CC(N)=O)C(=O)O
REMARK SMILES IDX 23 1 27 2 26 3 25 4 24 5 21 6 22 7 2 8 1 9 3 10 4 11 5 12
REMARK SMILES IDX 6 14 14 15 15 16 16 17 17 19 18 20 19 23 20 24 7 26 8 27
REMARK SMILES IDX 9 28 13 29 10 30 12 31 11 32 28 33 30 34 29 35 31 37 39 38
REMARK SMILES IDX 41 39 40 40 42 42 47 43 48 44 49 45 43 47 44 48 45 49 46 50
REMARK SMILES IDX 32 53 33 54 34 55 35 56 36 57 38 58 37 62
REMARK H PARENT 3 13 14 18 18 21 18 22 20 25 30 36 41 41 49 46 45 51 45 52
REMARK H PARENT 35 59 38 60 38 61 37 63
ROOT
ATOM      1  N   PRO A   4      20.648   9.867  -7.782  1.00  0.00    -0.329 N 
ATOM      2  CA  PRO A   4      21.378   8.653  -8.126  1.00  0.00     0.174 C 
ATOM      3  CB  PRO A   4      21.538   8.695  -9.645  1.00  0.00     0.037 C 
ATOM      4  CG  PRO A   4      21.364  10.160 -10.032  1.00  0.00     0.024 C 
ATOM      5  CD  PRO A   4      20.549  10.787  -8.907  1.00  0.00     0.120 C 
ENDROOT
BRANCH   1   6
ATOM      6  C   ALA A   3      20.068  10.080  -6.489  1.00  0.00     0.245 C 
ATOM      7  O   ALA A   3      20.177   9.184  -5.605  1.00  0.00    -0.272 OA
BRANCH   6   8
ATOM      8  CA  ALA A   3      19.349  11.360  -6.167  1.00  0.00     0.168 C 
ATOM      9  CB  ALA A   3      20.183  12.234  -5.236  1.00  0.00     0.041 C 
BRANCH   8  10
ATOM     10  N   ALA A   3      18.102  11.044  -5.512  1.00  0.00    -0.343 N 
ATOM     11  C   PHE A   2      16.895  11.747  -5.776  1.00  0.00     0.243 C 
ATOM     12  O   PHE A   2      16.906  12.791  -6.485  1.00  0.00    -0.273 OA
ATOM     13  H   UNL     1      18.198  10.532  -4.609  1.00  0.00     0.164 HD
BRANCH  11  14
ATOM     14  CA  PHE A   2      15.659  11.313  -5.059  1.00  0.00     0.175 C 
BRANCH  14  15
ATOM     15  N   PHE A   2      14.460  11.739  -5.768  1.00  0.00    -0.343 N 
ATOM     16  C   SER A   1      13.919  13.048  -5.633  1.00  0.00     0.239 C 
ATOM     17  O   SER A   1      14.449  13.865  -4.831  1.00  0.00    -0.273 OA
ATOM     18  H   UNL     1      13.877  11.000  -6.218  1.00  0.00     0.164 HD
BRANCH  16  19
ATOM     19  CA  SER A   1      12.662  13.411  -6.387  1.00  0.00     0.167 C 
BRANCH  19  20
ATOM     20  N   SER A   1      12.457  14.861  -6.398  1.00  0.00    -0.318 NA
ATOM     21  H   UNL     1      12.292  15.191  -5.419  1.00  0.00     0.119 HD
ATOM     22  H   UNL     1      13.318  15.337  -6.758  1.00  0.00     0.119 HD
ENDBRANCH  19  20
BRANCH  19  23
ATOM     23  CB  SER A   1      12.690  12.887  -7.840  1.00  0.00     0.184 C 
BRANCH  23  24
ATOM     24  OG  SER A   1      11.436  13.050  -8.443  1.00  0.00    -0.394 OA
ATOM     25  H   UNL     1      11.386  13.992  -8.751  1.00  0.00     0.210 HD
ENDBRANCH  23  24
ENDBRANCH  19  23
ENDBRANCH  16  19
ENDBRANCH  14  15
BRANCH  14  26
ATOM     26  CB  PHE A   2      15.622   9.774  -4.888  1.00  0.00     0.070 C 
BRANCH  26  27
ATOM     27  CG  PHE A   2      14.450   9.289  -4.088  1.00  0.00    -0.045 A 
ATOM     28  CD1 PHE A   2      13.906  10.047  -3.033  1.00  0.00     0.004 A 
ATOM     29  CD2 PHE A   2      13.972   7.990  -4.310  1.00  0.00     0.004 A 
ATOM     30  CE1 PHE A   2      12.870   9.537  -2.262  1.00  0.00     0.000 A 
ATOM     31  CE2 PHE A   2      12.941   7.479  -3.522  1.00  0.00     0.000 A 
ATOM     32  CZ  PHE A   2      12.387   8.254  -2.504  1.00  0.00     0.000 A 
ENDBRANCH  26  27
ENDBRANCH  14  26
ENDBRANCH  11  14
ENDBRANCH   8  10
ENDBRANCH   6   8
ENDBRANCH   1   6
BRANCH   2  33
ATOM     33  C   PRO A   4      22.724   8.634  -7.449  1.00  0.00     0.243 C 
ATOM     34  N   ARG A   5      23.318   7.384  -7.074  1.00  0.00    -0.343 N 
ATOM     35  O   PRO A   4      23.355   9.713  -7.279  1.00  0.00    -0.273 OA
ATOM     36  H   UNL     1      22.769   6.508  -7.234  1.00  0.00     0.164 HD
BRANCH  34  37
ATOM     37  CA  ARG A   5      24.749   7.268  -6.787  1.00  0.00     0.171 C 
BRANCH  37  38
ATOM     38  C   ARG A   5      25.494   7.141  -8.088  1.00  0.00     0.243 C 
ATOM     39  N   ASN A   6      26.345   8.209  -8.539  1.00  0.00    -0.341 N 
ATOM     40  O   ARG A   5      25.320   6.118  -8.805  1.00  0.00    -0.273 OA
ATOM     41  H   UNL     1      26.483   9.034  -7.912  1.00  0.00     0.164 HD
BRANCH  39  42
ATOM     42  CA  ASN A   6      26.981   8.254  -9.862  1.00  0.00     0.201 C 
BRANCH  42  43
ATOM     43  C   ASN A   6      25.935   8.204 -10.944  1.00  0.00     0.326 C 
ATOM     44  O   ASN A   6      25.279   9.243 -11.222  1.00  0.00    -0.250 OA
BRANCH  43  45
ATOM     45  OXT ASN A   6      25.650   7.012 -11.605  1.00  0.00    -0.480 OA
ATOM     46  H   UNL     1      24.930   6.971 -12.317  1.00  0.00     0.296 HD
ENDBRANCH  43  45
ENDBRANCH  42  43
BRANCH  42  47
ATOM     47  CB  ASN A   6      28.043   7.149 -10.020  1.00  0.00     0.136 C 
BRANCH  47  48
ATOM     48  CG  ASN A   6      29.121   7.281  -8.984  1.00  0.00     0.220 C 
ATOM     49  ND2 ASN A   6      29.034   6.565  -7.752  1.00  0.00    -0.370 N 
ATOM     50  OD1 ASN A   6      30.091   8.058  -9.188  1.00  0.00    -0.275 OA
ATOM     51  H   UNL     1      28.231   5.926  -7.561  1.00  0.00     0.159 HD
ATOM     52  H   UNL     1      29.776   6.673  -7.026  1.00  0.00     0.159 HD
ENDBRANCH  47  48
ENDBRANCH  42  47
ENDBRANCH  39  42
ENDBRANCH  37  38
BRANCH  37  53
ATOM     53  CB  ARG A   5      25.034   6.055  -5.876  1.00  0.00     0.037 C 
BRANCH  53  54
ATOM     54  CG  ARG A   5      24.287   6.103  -4.530  1.00  0.00     0.024 C 
BRANCH  54  55
ATOM     55  CD  ARG A   5      24.757   7.251  -3.625  1.00  0.00     0.116 C 
BRANCH  55  56
ATOM     56  NE  ARG A   5      24.152   7.135  -2.299  1.00  0.00    -0.357 N 
ATOM     57  CZ  ARG A   5      24.602   6.198  -1.310  1.00  0.00     0.185 C 
ATOM     58  NH2 ARG A   5      23.939   6.132  -0.044  1.00  0.00    -0.370 N 
ATOM     59  H   UNL     1      23.390   7.804  -2.043  1.00  0.00     0.163 HD
ATOM     60  H   UNL     1      23.131   6.760   0.162  1.00  0.00     0.159 HD
ATOM     61  H   UNL     1      24.251   5.458   0.690  1.00  0.00     0.159 HD
BRANCH  57  62
ATOM     62  NH1 ARG A   5      25.608   5.418  -1.555  1.00  0.00    -0.270 NA
ATOM     63  H   UNL     1      25.955   4.730  -0.851  1.00  0.00     0.191 HD
ENDBRANCH  57  62
ENDBRANCH  55  56
ENDBRANCH  54  55
ENDBRANCH  53  54
ENDBRANCH  37  53
ENDBRANCH  34  37
ENDBRANCH   2  33
TORSDOF 24
