REMARK SMILES CC(C)C[C@H](NC(=O)[C@H](Cc1ccccc1)NC(=O)[C@@H](N)Cc1c[nH]cn1)C(=O)N[C@@H](CCC(N)=O)C(=O)N[C@@H](CCCNC(=N)N)C(=O)N[C@@H](CC(N)=O)C(=O)O
REMARK SMILES IDX 28 1 29 2 30 3 5 5 6 6 7 7 8 8 9 10 17 11 18 12 19 13 20 15
REMARK SMILES IDX 21 16 22 19 23 20 27 21 24 22 26 23 25 24 10 26 11 27 12 28
REMARK SMILES IDX 16 29 13 30 15 31 14 32 4 33 2 34 1 35 3 36 31 37 37 38
REMARK SMILES IDX 39 39 38 40 40 42 48 43 50 44 49 45 51 47 56 48 57 49 58 50
REMARK SMILES IDX 52 52 53 53 54 54 55 55 41 58 42 59 43 60 44 61 45 62 47 63
REMARK SMILES IDX 46 67 32 69 33 70 34 71 35 72 36 73
REMARK H PARENT 30 4 6 9 17 14 21 17 21 18 25 25 39 41 50 46 58 51 54 56 54 57
REMARK H PARENT 44 64 47 65 47 66 46 68 35 74 35 75
ROOT
ATOM      1  C   LEU A   3      -0.463  -0.385   0.047  1.00  0.00     0.243 C 
ATOM      2  O   LEU A   3      -0.451  -1.327   0.887  1.00  0.00    -0.273 OA
ATOM      3  N   GLN A   4       0.686  -0.145  -0.781  1.00  0.00    -0.343 N 
ATOM      4  H   UNL     1       0.652   0.662  -1.445  1.00  0.00     0.164 HD
ENDROOT
BRANCH   1   5
ATOM      5  CA  LEU A   3      -1.657   0.538  -0.049  1.00  0.00     0.171 C 
BRANCH   5   6
ATOM      6  N   LEU A   3      -2.915  -0.153   0.264  1.00  0.00    -0.343 N 
ATOM      7  C   PHE A   2      -4.196   0.396  -0.081  1.00  0.00     0.243 C 
ATOM      8  O   PHE A   2      -4.266   1.426  -0.806  1.00  0.00    -0.273 OA
ATOM      9  H   UNL     1      -2.899  -1.092   0.720  1.00  0.00     0.164 HD
BRANCH   7  10
ATOM     10  CA  PHE A   2      -5.455  -0.295   0.380  1.00  0.00     0.175 C 
BRANCH  10  11
ATOM     11  N   PHE A   2      -6.570   0.658   0.511  1.00  0.00    -0.343 N 
ATOM     12  C   HIS A   1      -7.196   1.354  -0.580  1.00  0.00     0.237 C 
ATOM     13  O   HIS A   1      -7.060   0.939  -1.763  1.00  0.00    -0.273 OA
ATOM     14  H   UNL     1      -6.851   0.925   1.480  1.00  0.00     0.164 HD
BRANCH  12  15
ATOM     15  CA  HIS A   1      -8.015   2.594  -0.306  1.00  0.00     0.147 C 
BRANCH  15  16
ATOM     16  N   HIS A   1      -8.266   3.340  -1.546  1.00  0.00    -0.320 NA
ATOM     17  H   UNL     1      -7.345   3.650  -1.935  1.00  0.00     0.119 HD
ATOM     18  H   UNL     1      -8.782   4.216  -1.304  1.00  0.00     0.119 HD
ENDBRANCH  15  16
BRANCH  15  19
ATOM     19  CB  HIS A   1      -9.341   2.251   0.403  1.00  0.00     0.086 C 
BRANCH  19  20
ATOM     20  CG  HIS A   1     -10.219   1.325  -0.387  1.00  0.00     0.060 A 
ATOM     21  ND1 HIS A   1     -10.671   1.582  -1.633  1.00  0.00    -0.242 NA
ATOM     22  CD2 HIS A   1     -10.771   0.152   0.077  1.00  0.00     0.107 A 
ATOM     23  CE1 HIS A   1     -11.482   0.537  -1.906  1.00  0.00     0.196 A 
ATOM     24  NE2 HIS A   1     -11.564  -0.340  -0.887  1.00  0.00    -0.351 N 
ATOM     25  H   UNL     1     -12.135  -1.214  -0.850  1.00  0.00     0.167 HD
ENDBRANCH  19  20
ENDBRANCH  15  19
ENDBRANCH  12  15
ENDBRANCH  10  11
BRANCH  10  26
ATOM     26  CB  PHE A   2      -5.787  -1.493  -0.533  1.00  0.00     0.070 C 
BRANCH  26  27
ATOM     27  CG  PHE A   2      -7.104  -2.145  -0.188  1.00  0.00    -0.045 A 
ATOM     28  CD1 PHE A   2      -8.154  -2.158  -1.123  1.00  0.00     0.004 A 
ATOM     29  CD2 PHE A   2      -7.276  -2.792   1.049  1.00  0.00     0.004 A 
ATOM     30  CE1 PHE A   2      -9.357  -2.803  -0.820  1.00  0.00     0.000 A 
ATOM     31  CE2 PHE A   2      -8.485  -3.428   1.347  1.00  0.00     0.000 A 
ATOM     32  CZ  PHE A   2      -9.526  -3.429   0.418  1.00  0.00     0.000 A 
ENDBRANCH  26  27
ENDBRANCH  10  26
ENDBRANCH   7  10
ENDBRANCH   5   6
BRANCH   5  33
ATOM     33  CB  LEU A   3      -1.465   1.808   0.813  1.00  0.00     0.038 C 
BRANCH  33  34
ATOM     34  CG  LEU A   3      -1.212   1.578   2.326  1.00  0.00    -0.015 C 
ATOM     35  CD1 LEU A   3      -0.764   2.896   2.977  1.00  0.00     0.007 C 
ATOM     36  CD2 LEU A   3      -2.453   1.041   3.054  1.00  0.00     0.007 C 
ENDBRANCH  33  34
ENDBRANCH   5  33
ENDBRANCH   1   5
BRANCH   3  37
ATOM     37  CA  GLN A   4       1.791  -1.101  -0.890  1.00  0.00     0.171 C 
BRANCH  37  38
ATOM     38  C   GLN A   4       3.062  -0.369  -1.241  1.00  0.00     0.243 C 
ATOM     39  N   ARG A   5       4.202  -0.452  -0.374  1.00  0.00    -0.343 N 
ATOM     40  O   GLN A   4       3.121   0.301  -2.309  1.00  0.00    -0.273 OA
ATOM     41  H   UNL     1       4.074  -0.876   0.574  1.00  0.00     0.164 HD
BRANCH  39  42
ATOM     42  CA  ARG A   5       5.494   0.159  -0.713  1.00  0.00     0.171 C 
BRANCH  42  43
ATOM     43  C   ARG A   5       6.645  -0.703  -0.252  1.00  0.00     0.243 C 
ATOM     44  N   ASN A   6       7.910  -0.617  -0.923  1.00  0.00    -0.341 N 
ATOM     45  O   ARG A   5       6.512  -1.459   0.749  1.00  0.00    -0.273 OA
ATOM     46  H   UNL     1       8.000   0.044  -1.728  1.00  0.00     0.164 HD
BRANCH  44  47
ATOM     47  CA  ASN A   6       9.129  -1.217  -0.371  1.00  0.00     0.201 C 
BRANCH  47  48
ATOM     48  C   ASN A   6       9.765  -0.264   0.598  1.00  0.00     0.326 C 
ATOM     49  O   ASN A   6       9.949   0.941   0.277  1.00  0.00    -0.250 OA
BRANCH  48  50
ATOM     50  OXT ASN A   6      10.186  -0.721   1.843  1.00  0.00    -0.480 OA
ATOM     51  H   UNL     1      10.625  -0.092   2.504  1.00  0.00     0.296 HD
ENDBRANCH  48  50
ENDBRANCH  47  48
BRANCH  47  52
ATOM     52  CB  ASN A   6      10.121  -1.571  -1.493  1.00  0.00     0.136 C 
BRANCH  52  53
ATOM     53  CG  ASN A   6       9.550  -2.567  -2.464  1.00  0.00     0.220 C 
ATOM     54  ND2 ASN A   6       9.744  -2.397  -3.869  1.00  0.00    -0.370 N 
ATOM     55  OD1 ASN A   6       8.952  -3.592  -2.040  1.00  0.00    -0.275 OA
ATOM     56  H   UNL     1      10.283  -1.584  -4.245  1.00  0.00     0.159 HD
ATOM     57  H   UNL     1       9.376  -3.107  -4.541  1.00  0.00     0.159 HD
ENDBRANCH  52  53
ENDBRANCH  47  52
ENDBRANCH  44  47
ENDBRANCH  42  43
BRANCH  42  58
ATOM     58  CB  ARG A   5       5.595   1.584  -0.135  1.00  0.00     0.037 C 
BRANCH  58  59
ATOM     59  CG  ARG A   5       5.476   1.630   1.401  1.00  0.00     0.024 C 
BRANCH  59  60
ATOM     60  CD  ARG A   5       5.663   3.050   1.949  1.00  0.00     0.116 C 
BRANCH  60  61
ATOM     61  NE  ARG A   5       7.001   3.564   1.648  1.00  0.00    -0.357 N 
ATOM     62  CZ  ARG A   5       8.191   3.097   2.303  1.00  0.00     0.185 C 
ATOM     63  NH2 ARG A   5       9.462   3.620   1.913  1.00  0.00    -0.370 N 
ATOM     64  H   UNL     1       7.086   4.343   0.957  1.00  0.00     0.163 HD
ATOM     65  H   UNL     1      10.339   3.308   2.386  1.00  0.00     0.159 HD
ATOM     66  H   UNL     1       9.530   4.332   1.151  1.00  0.00     0.159 HD
BRANCH  62  67
ATOM     67  NH1 ARG A   5       8.117   2.208   3.244  1.00  0.00    -0.270 NA
ATOM     68  H   UNL     1       8.970   1.852   3.731  1.00  0.00     0.191 HD
ENDBRANCH  62  67
ENDBRANCH  60  61
ENDBRANCH  59  60
ENDBRANCH  58  59
ENDBRANCH  42  58
ENDBRANCH  39  42
ENDBRANCH  37  38
BRANCH  37  69
ATOM     69  CB  GLN A   4       1.444  -2.167  -1.949  1.00  0.00     0.045 C 
BRANCH  69  70
ATOM     70  CG  GLN A   4       2.523  -3.249  -2.122  1.00  0.00     0.102 C 
BRANCH  70  71
ATOM     71  CD  GLN A   4       2.727  -4.048  -0.867  1.00  0.00     0.217 C 
ATOM     72  NE2 GLN A   4       3.944  -3.937  -0.127  1.00  0.00    -0.370 N 
ATOM     73  OE1 GLN A   4       1.822  -4.823  -0.463  1.00  0.00    -0.275 OA
ATOM     74  H   UNL     1       4.727  -3.336  -0.473  1.00  0.00     0.159 HD
ATOM     75  H   UNL     1       4.071  -4.464   0.765  1.00  0.00     0.159 HD
ENDBRANCH  70  71
ENDBRANCH  69  70
ENDBRANCH  37  69
ENDBRANCH   3  37
TORSDOF 29
