REMARK SMILES CC(C)C[C@H](NC(=O)CNC(=O)[C@@H](N)CO)C(=O)N[C@@H](Cc1ccccc1)C(=O)N[C@@H](CCCNC(=N)N)C(=O)N[C@@H](CC(N)=O)C(=O)O
REMARK SMILES IDX 17 1 18 2 19 3 5 5 6 6 7 7 8 8 9 10 10 11 11 12 12 13 13 15
REMARK SMILES IDX 14 16 15 19 16 20 4 22 2 23 1 24 3 25 20 26 28 27 30 28
REMARK SMILES IDX 29 29 31 31 39 32 41 33 40 34 42 36 47 37 48 38 49 39 43 41
REMARK SMILES IDX 44 42 45 43 46 44 32 47 33 48 34 49 35 50 36 51 38 52 37 56
REMARK SMILES IDX 21 58 22 59 23 60 27 61 24 62 26 63 25 64
REMARK H PARENT 19 4 6 9 10 14 14 17 14 18 16 21 30 30 41 35 49 40 45 45 45 46
REMARK H PARENT 35 53 38 54 38 55 37 57
ROOT
ATOM      1  C   LEU A   3      20.041  10.070  -6.469  1.00  0.00     0.243 C 
ATOM      2  O   LEU A   3      20.163   9.147  -5.617  1.00  0.00    -0.273 OA
ATOM      3  N   PHE A   4      20.570   9.914  -7.776  1.00  0.00    -0.342 N 
ATOM      4  H   UNL     1      20.408  10.658  -8.493  1.00  0.00     0.164 HD
ENDROOT
BRANCH   1   5
ATOM      5  CA  LEU A   3      19.309  11.325  -6.132  1.00  0.00     0.171 C 
BRANCH   5   6
ATOM      6  N   LEU A   3      18.034  10.980  -5.537  1.00  0.00    -0.343 N 
ATOM      7  C   GLY A   2      16.867  11.758  -5.739  1.00  0.00     0.240 C 
ATOM      8  O   GLY A   2      16.903  12.807  -6.441  1.00  0.00    -0.273 OA
ATOM      9  H   UNL     1      17.990  10.190  -4.852  1.00  0.00     0.164 HD
BRANCH   7  10
ATOM     10  CA  GLY A   2      15.632  11.331  -5.023  1.00  0.00     0.216 C 
BRANCH  10  11
ATOM     11  N   GLY A   2      14.439  11.726  -5.741  1.00  0.00    -0.346 N 
ATOM     12  C   SER A   1      13.910  13.043  -5.629  1.00  0.00     0.239 C 
ATOM     13  O   SER A   1      14.447  13.869  -4.838  1.00  0.00    -0.273 OA
ATOM     14  H   UNL     1      13.856  10.960  -6.143  1.00  0.00     0.164 HD
BRANCH  12  15
ATOM     15  CA  SER A   1      12.658  13.407  -6.385  1.00  0.00     0.167 C 
BRANCH  15  16
ATOM     16  N   SER A   1      12.455  14.857  -6.404  1.00  0.00    -0.318 NA
ATOM     17  H   UNL     1      12.287  15.192  -5.427  1.00  0.00     0.119 HD
ATOM     18  H   UNL     1      13.318  15.330  -6.763  1.00  0.00     0.119 HD
ENDBRANCH  15  16
BRANCH  15  19
ATOM     19  CB  SER A   1      12.691  12.874  -7.834  1.00  0.00     0.184 C 
BRANCH  19  20
ATOM     20  OG  SER A   1      11.443  13.047  -8.447  1.00  0.00    -0.394 OA
ATOM     21  H   UNL     1      10.839  12.357  -8.066  1.00  0.00     0.210 HD
ENDBRANCH  19  20
ENDBRANCH  15  19
ENDBRANCH  12  15
ENDBRANCH  10  11
ENDBRANCH   7  10
ENDBRANCH   5   6
BRANCH   5  22
ATOM     22  CB  LEU A   3      20.133  12.237  -5.211  1.00  0.00     0.038 C 
BRANCH  22  23
ATOM     23  CG  LEU A   3      20.405  11.669  -3.791  1.00  0.00    -0.015 C 
ATOM     24  CD1 LEU A   3      21.806  12.071  -3.322  1.00  0.00     0.007 C 
ATOM     25  CD2 LEU A   3      19.353  12.146  -2.782  1.00  0.00     0.007 C 
ENDBRANCH  22  23
ENDBRANCH   5  22
ENDBRANCH   1   5
BRANCH   3  26
ATOM     26  CA  PHE A   4      21.353   8.749  -8.147  1.00  0.00     0.175 C 
BRANCH  26  27
ATOM     27  C   PHE A   4      22.716   9.205  -8.528  1.00  0.00     0.243 C 
ATOM     28  N   ARG A   5      23.824   8.715  -7.788  1.00  0.00    -0.343 N 
ATOM     29  O   PHE A   4      22.879  10.027  -9.471  1.00  0.00    -0.273 OA
ATOM     30  H   UNL     1      23.669   8.014  -7.027  1.00  0.00     0.164 HD
BRANCH  28  31
ATOM     31  CA  ARG A   5      25.186   9.120  -8.073  1.00  0.00     0.171 C 
BRANCH  31  32
ATOM     32  C   ARG A   5      25.901   7.967  -8.686  1.00  0.00     0.243 C 
ATOM     33  N   ASN A   6      25.914   7.864 -10.103  1.00  0.00    -0.341 N 
ATOM     34  O   ARG A   5      26.448   7.086  -7.970  1.00  0.00    -0.273 OA
ATOM     35  H   UNL     1      25.490   8.647 -10.651  1.00  0.00     0.164 HD
BRANCH  33  36
ATOM     36  CA  ASN A   6      26.543   6.751 -10.805  1.00  0.00     0.201 C 
BRANCH  36  37
ATOM     37  C   ASN A   6      27.993   6.642 -10.415  1.00  0.00     0.326 C 
ATOM     38  O   ASN A   6      28.795   7.578 -10.676  1.00  0.00    -0.250 OA
BRANCH  37  39
ATOM     39  OXT ASN A   6      28.450   5.499  -9.766  1.00  0.00    -0.480 OA
ATOM     40  H   UNL     1      29.423   5.409  -9.497  1.00  0.00     0.296 HD
ENDBRANCH  37  39
ENDBRANCH  36  37
BRANCH  36  41
ATOM     41  CB  ASN A   6      26.429   6.950 -12.324  1.00  0.00     0.136 C 
BRANCH  41  42
ATOM     42  CG  ASN A   6      25.017   7.186 -12.776  1.00  0.00     0.220 C 
ATOM     43  ND2 ASN A   6      24.759   8.093 -13.838  1.00  0.00    -0.370 N 
ATOM     44  OD1 ASN A   6      24.061   6.570 -12.241  1.00  0.00    -0.275 OA
ATOM     45  H   UNL     1      23.780   8.261 -14.159  1.00  0.00     0.159 HD
ATOM     46  H   UNL     1      25.539   8.599 -14.313  1.00  0.00     0.159 HD
ENDBRANCH  41  42
ENDBRANCH  36  41
ENDBRANCH  33  36
ENDBRANCH  31  32
BRANCH  31  47
ATOM     47  CB  ARG A   5      25.862   9.604  -6.794  1.00  0.00     0.037 C 
BRANCH  47  48
ATOM     48  CG  ARG A   5      25.164  10.858  -6.270  1.00  0.00     0.024 C 
BRANCH  48  49
ATOM     49  CD  ARG A   5      25.839  11.391  -5.014  1.00  0.00     0.116 C 
BRANCH  49  50
ATOM     50  NE  ARG A   5      25.378  10.686  -3.820  1.00  0.00    -0.357 N 
ATOM     51  CZ  ARG A   5      25.469  11.281  -2.526  1.00  0.00     0.185 C 
ATOM     52  NH2 ARG A   5      26.107  12.546  -2.352  1.00  0.00    -0.370 N 
ATOM     53  H   UNL     1      24.895   9.763  -3.912  1.00  0.00     0.163 HD
ATOM     54  H   UNL     1      26.080  13.024  -1.423  1.00  0.00     0.159 HD
ATOM     55  H   UNL     1      26.697  12.982  -3.093  1.00  0.00     0.159 HD
BRANCH  51  56
ATOM     56  NH1 ARG A   5      24.954  10.672  -1.507  1.00  0.00    -0.270 NA
ATOM     57  H   UNL     1      24.995  11.076  -0.545  1.00  0.00     0.191 HD
ENDBRANCH  51  56
ENDBRANCH  49  50
ENDBRANCH  48  49
ENDBRANCH  47  48
ENDBRANCH  31  47
ENDBRANCH  28  31
ENDBRANCH  26  27
BRANCH  26  58
ATOM     58  CB  PHE A   4      20.660   7.991  -9.281  1.00  0.00     0.070 C 
BRANCH  58  59
ATOM     59  CG  PHE A   4      21.386   6.752  -9.778  1.00  0.00    -0.045 A 
ATOM     60  CD1 PHE A   4      22.157   5.923  -8.935  1.00  0.00     0.004 A 
ATOM     61  CD2 PHE A   4      21.110   6.307 -11.085  1.00  0.00     0.004 A 
ATOM     62  CE1 PHE A   4      22.686   4.720  -9.412  1.00  0.00     0.000 A 
ATOM     63  CE2 PHE A   4      21.614   5.087 -11.546  1.00  0.00     0.000 A 
ATOM     64  CZ  PHE A   4      22.413   4.301 -10.715  1.00  0.00     0.000 A 
ENDBRANCH  58  59
ENDBRANCH  26  58
ENDBRANCH   3  26
TORSDOF 26
