REMARK SMILES CC(C)C[C@H](NC(=O)[C@H](CCCCN)NC(=O)[C@@H](N)CO)C(=O)N1CCC[C@H]1C(=O)N[C@@H](CCCNC(=N)N)C(=O)N[C@@H](CC(N)=O)C(=O)O
REMARK SMILES IDX 22 1 23 2 5 3 6 4 7 5 8 6 9 8 15 9 16 10 17 11 18 13 19 14
REMARK SMILES IDX 20 17 21 18 10 20 11 21 12 22 13 23 14 24 4 27 2 28 1 29
REMARK SMILES IDX 3 30 24 31 28 32 25 33 27 34 26 35 29 36 31 37 30 38 32 40
REMARK SMILES IDX 40 41 42 42 41 43 43 45 48 46 49 47 50 48 44 50 45 51 46 52
REMARK SMILES IDX 47 53 33 56 34 57 35 58 36 59 37 60 39 61 38 65
REMARK H PARENT 6 7 15 12 19 15 19 16 21 19 14 25 14 26 31 39 42 44 50 49
REMARK H PARENT 46 54 46 55 36 62 39 63 39 64 38 66
ROOT
ATOM      1  C   LEU A   3       0.714   0.935  -0.946  1.00  0.00     0.245 C 
ATOM      2  O   LEU A   3       0.882   1.838  -0.081  1.00  0.00    -0.272 OA
ENDROOT
BRANCH   1   3
ATOM      3  CA  LEU A   3       1.705  -0.205  -1.049  1.00  0.00     0.171 C 
BRANCH   3   4
ATOM      4  N   LEU A   3       3.094   0.280  -1.063  1.00  0.00    -0.343 N 
ATOM      5  C   LYS A   2       4.180  -0.550  -1.515  1.00  0.00     0.243 C 
ATOM      6  O   LYS A   2       3.933  -1.640  -2.114  1.00  0.00    -0.273 OA
ATOM      7  H   UNL     1       3.300   1.273  -0.809  1.00  0.00     0.164 HD
BRANCH   5   8
ATOM      8  CA  LYS A   2       5.609  -0.078  -1.371  1.00  0.00     0.171 C 
BRANCH   8   9
ATOM      9  N   LYS A   2       5.770   0.623  -0.094  1.00  0.00    -0.343 N 
ATOM     10  C   SER A   1       6.375   1.922   0.001  1.00  0.00     0.239 C 
ATOM     11  O   SER A   1       6.635   2.579  -1.045  1.00  0.00    -0.273 OA
ATOM     12  H   UNL     1       5.554   0.107   0.787  1.00  0.00     0.164 HD
BRANCH  10  13
ATOM     13  CA  SER A   1       6.712   2.506   1.354  1.00  0.00     0.167 C 
BRANCH  13  14
ATOM     14  N   SER A   1       8.148   2.771   1.458  1.00  0.00    -0.318 NA
ATOM     15  H   UNL     1       8.439   3.421   0.688  1.00  0.00     0.119 HD
ATOM     16  H   UNL     1       8.663   1.873   1.313  1.00  0.00     0.119 HD
ENDBRANCH  13  14
BRANCH  13  17
ATOM     17  CB  SER A   1       5.914   3.795   1.597  1.00  0.00     0.184 C 
BRANCH  17  18
ATOM     18  OG  SER A   1       6.148   4.272   2.896  1.00  0.00    -0.394 OA
ATOM     19  H   UNL     1       7.000   4.779   2.858  1.00  0.00     0.210 HD
ENDBRANCH  17  18
ENDBRANCH  13  17
ENDBRANCH  10  13
ENDBRANCH   8   9
BRANCH   8  20
ATOM     20  CB  LYS A   2       6.604  -1.256  -1.439  1.00  0.00     0.035 C 
BRANCH  20  21
ATOM     21  CG  LYS A   2       8.065  -0.799  -1.263  1.00  0.00     0.004 C 
BRANCH  21  22
ATOM     22  CD  LYS A   2       9.075  -1.918  -1.562  1.00  0.00     0.015 C 
BRANCH  22  23
ATOM     23  CE  LYS A   2       9.041  -3.041  -0.517  1.00  0.00     0.077 C 
BRANCH  23  24
ATOM     24  NZ  LYS A   2      10.079  -4.028  -0.803  1.00  0.00    -0.330 NA
ATOM     25  H   UNL     1      11.011  -3.592  -0.610  1.00  0.00     0.118 HD
ATOM     26  H   UNL     1       9.974  -4.809  -0.117  1.00  0.00     0.118 HD
ENDBRANCH  23  24
ENDBRANCH  22  23
ENDBRANCH  21  22
ENDBRANCH  20  21
ENDBRANCH   8  20
ENDBRANCH   5   8
ENDBRANCH   3   4
BRANCH   3  27
ATOM     27  CB  LEU A   3       1.489  -1.270   0.056  1.00  0.00     0.038 C 
BRANCH  27  28
ATOM     28  CG  LEU A   3       1.394  -0.756   1.518  1.00  0.00    -0.015 C 
ATOM     29  CD1 LEU A   3       1.033  -1.921   2.454  1.00  0.00     0.007 C 
ATOM     30  CD2 LEU A   3       2.694  -0.099   2.009  1.00  0.00     0.007 C 
ENDBRANCH  27  28
ENDBRANCH   3  27
ENDBRANCH   1   3
BRANCH   1  31
ATOM     31  N   PRO A   4      -0.455   0.972  -1.782  1.00  0.00    -0.329 N 
ATOM     32  CA  PRO A   4      -1.718   1.563  -1.361  1.00  0.00     0.174 C 
ATOM     33  CD  PRO A   4      -0.427   0.653  -3.199  1.00  0.00     0.120 C 
ATOM     34  CB  PRO A   4      -2.615   1.548  -2.603  1.00  0.00     0.037 C 
ATOM     35  CG  PRO A   4      -1.688   1.274  -3.785  1.00  0.00     0.024 C 
BRANCH  32  36
ATOM     36  C   PRO A   4      -2.347   0.784  -0.234  1.00  0.00     0.243 C 
ATOM     37  N   ARG A   5      -3.444   1.350   0.499  1.00  0.00    -0.343 N 
ATOM     38  O   PRO A   4      -1.956  -0.390   0.019  1.00  0.00    -0.273 OA
ATOM     39  H   UNL     1      -3.616   2.376   0.399  1.00  0.00     0.164 HD
BRANCH  37  40
ATOM     40  CA  ARG A   5      -4.275   0.545   1.404  1.00  0.00     0.171 C 
BRANCH  40  41
ATOM     41  C   ARG A   5      -4.921  -0.604   0.669  1.00  0.00     0.243 C 
ATOM     42  N   ASN A   6      -5.177  -1.839   1.350  1.00  0.00    -0.341 N 
ATOM     43  O   ARG A   5      -5.278  -0.459  -0.532  1.00  0.00    -0.273 OA
ATOM     44  H   UNL     1      -4.899  -1.920   2.355  1.00  0.00     0.164 HD
BRANCH  42  45
ATOM     45  CA  ASN A   6      -5.994  -2.900   0.756  1.00  0.00     0.201 C 
BRANCH  45  46
ATOM     46  C   ASN A   6      -7.448  -2.557   0.915  1.00  0.00     0.326 C 
ATOM     47  O   ASN A   6      -7.910  -2.262   2.050  1.00  0.00    -0.250 OA
BRANCH  46  48
ATOM     48  OXT ASN A   6      -8.288  -2.577  -0.192  1.00  0.00    -0.480 OA
ATOM     49  H   UNL     1      -9.272  -2.357  -0.100  1.00  0.00     0.296 HD
ENDBRANCH  46  48
ENDBRANCH  45  46
BRANCH  45  50
ATOM     50  CB  ASN A   6      -5.664  -4.254   1.412  1.00  0.00     0.136 C 
BRANCH  50  51
ATOM     51  CG  ASN A   6      -6.363  -5.390   0.722  1.00  0.00     0.220 C 
ATOM     52  ND2 ASN A   6      -5.861  -5.904  -0.510  1.00  0.00    -0.370 N 
ATOM     53  OD1 ASN A   6      -7.421  -5.868   1.211  1.00  0.00    -0.275 OA
ATOM     54  H   UNL     1      -6.370  -6.670  -1.004  1.00  0.00     0.159 HD
ATOM     55  H   UNL     1      -4.987  -5.518  -0.935  1.00  0.00     0.159 HD
ENDBRANCH  50  51
ENDBRANCH  45  50
ENDBRANCH  42  45
ENDBRANCH  40  41
BRANCH  40  56
ATOM     56  CB  ARG A   5      -5.320   1.411   2.153  1.00  0.00     0.037 C 
BRANCH  56  57
ATOM     57  CG  ARG A   5      -6.607   1.759   1.377  1.00  0.00     0.024 C 
BRANCH  57  58
ATOM     58  CD  ARG A   5      -6.375   2.709   0.194  1.00  0.00     0.116 C 
BRANCH  58  59
ATOM     59  NE  ARG A   5      -7.651   3.113  -0.399  1.00  0.00    -0.357 N 
ATOM     60  CZ  ARG A   5      -8.568   4.052   0.188  1.00  0.00     0.185 C 
ATOM     61  NH2 ARG A   5      -9.835   4.272  -0.430  1.00  0.00    -0.370 N 
ATOM     62  H   UNL     1      -7.904   2.701  -1.328  1.00  0.00     0.163 HD
ATOM     63  H   UNL     1     -10.095   3.762  -1.301  1.00  0.00     0.159 HD
ATOM     64  H   UNL     1     -10.523   4.942  -0.021  1.00  0.00     0.159 HD
BRANCH  60  65
ATOM     65  NH1 ARG A   5      -8.269   4.720   1.260  1.00  0.00    -0.270 NA
ATOM     66  H   UNL     1      -7.360   4.636   1.764  1.00  0.00     0.191 HD
ENDBRANCH  60  65
ENDBRANCH  58  59
ENDBRANCH  57  58
ENDBRANCH  56  57
ENDBRANCH  40  56
ENDBRANCH  37  40
ENDBRANCH  32  36
ENDBRANCH   1  31
TORSDOF 29
