REMARK SMILES CC(C)C[C@H](NC(=O)[C@@H](NC(=O)CNC(=O)[C@@H](N)CO)[C@@H](C)O)C(=O)N[C@@H](CCCNC(=N)N)C(=O)N[C@@H](CC(N)=O)C(=O)O
REMARK SMILES IDX 7 1 8 2 6 3 9 5 10 6 11 7 12 8 13 10 14 11 15 12 16 13 17 15
REMARK SMILES IDX 18 16 19 19 20 20 21 22 22 23 23 24 5 26 24 27 26 28 25 29
REMARK SMILES IDX 27 31 35 32 37 33 36 34 38 36 43 37 44 38 45 39 39 41 40 42
REMARK SMILES IDX 41 43 42 44 28 47 29 48 30 49 31 50 32 51 34 52 33 56 4 58
REMARK SMILES IDX 2 59 1 60 3 61
REMARK H PARENT 6 4 10 9 14 14 18 17 18 18 20 21 23 25 26 30 37 35 45 40 41 45
REMARK H PARENT 41 46 31 53 34 54 34 55 33 57
ROOT
ATOM      1  C   THR A   3       2.384   0.472   0.070  1.00  0.00     0.245 C 
ATOM      2  O   THR A   3       2.050  -0.686  -0.305  1.00  0.00    -0.273 OA
ATOM      3  N   LEU A   4       1.677   1.107   1.149  1.00  0.00    -0.342 N 
ATOM      4  H   UNL     1       2.039   2.025   1.497  1.00  0.00     0.164 HD
ENDROOT
BRANCH   1   5
ATOM      5  CA  THR A   3       3.478   1.222  -0.663  1.00  0.00     0.200 C 
BRANCH   5   6
ATOM      6  N   THR A   3       4.384   0.302  -1.365  1.00  0.00    -0.341 N 
ATOM      7  C   GLY A   2       5.730   0.668  -1.704  1.00  0.00     0.240 C 
ATOM      8  O   GLY A   2       6.274   1.668  -1.161  1.00  0.00    -0.273 OA
ATOM      9  H   UNL     1       3.987  -0.552  -1.821  1.00  0.00     0.164 HD
BRANCH   7  10
ATOM     10  CA  GLY A   2       6.487  -0.109  -2.742  1.00  0.00     0.216 C 
BRANCH  10  11
ATOM     11  N   GLY A   2       7.809  -0.483  -2.247  1.00  0.00    -0.346 N 
ATOM     12  C   SER A   1       7.995  -1.507  -1.259  1.00  0.00     0.239 C 
ATOM     13  O   SER A   1       6.994  -2.097  -0.765  1.00  0.00    -0.273 OA
ATOM     14  H   UNL     1       8.646  -0.029  -2.675  1.00  0.00     0.164 HD
BRANCH  12  15
ATOM     15  CA  SER A   1       9.390  -1.927  -0.864  1.00  0.00     0.167 C 
BRANCH  15  16
ATOM     16  N   SER A   1       9.480  -2.202   0.574  1.00  0.00    -0.318 NA
ATOM     17  H   UNL     1       8.824  -2.977   0.829  1.00  0.00     0.119 HD
ATOM     18  H   UNL     1       9.177  -1.348   1.097  1.00  0.00     0.119 HD
ENDBRANCH  15  16
BRANCH  15  19
ATOM     19  CB  SER A   1       9.822  -3.160  -1.672  1.00  0.00     0.184 C 
BRANCH  19  20
ATOM     20  OG  SER A   1      11.136  -3.526  -1.349  1.00  0.00    -0.394 OA
ATOM     21  H   UNL     1      11.732  -2.873  -1.797  1.00  0.00     0.210 HD
ENDBRANCH  19  20
ENDBRANCH  15  19
ENDBRANCH  12  15
ENDBRANCH  10  11
ENDBRANCH   7  10
ENDBRANCH   5   6
BRANCH   5  22
ATOM     22  CB  THR A   3       2.899   2.266  -1.654  1.00  0.00     0.143 C 
ATOM     23  CG2 THR A   3       2.053   1.629  -2.762  1.00  0.00     0.041 C 
BRANCH  22  24
ATOM     24  OG1 THR A   3       2.117   3.210  -0.970  1.00  0.00    -0.391 OA
ATOM     25  H   UNL     1       2.742   3.795  -0.468  1.00  0.00     0.211 HD
ENDBRANCH  22  24
ENDBRANCH   5  22
ENDBRANCH   1   5
BRANCH   3  26
ATOM     26  CA  LEU A   4       0.541   0.466   1.827  1.00  0.00     0.171 C 
BRANCH  26  27
ATOM     27  C   LEU A   4      -0.583   0.167   0.864  1.00  0.00     0.243 C 
ATOM     28  N   ARG A   5      -1.534  -0.859   1.178  1.00  0.00    -0.343 N 
ATOM     29  O   LEU A   4      -0.715   0.854  -0.186  1.00  0.00    -0.273 OA
ATOM     30  H   UNL     1      -1.385  -1.423   2.046  1.00  0.00     0.164 HD
BRANCH  28  31
ATOM     31  CA  ARG A   5      -2.710  -1.112   0.341  1.00  0.00     0.171 C 
BRANCH  31  32
ATOM     32  C   ARG A   5      -3.668   0.046   0.475  1.00  0.00     0.243 C 
ATOM     33  N   ASN A   6      -4.352   0.298   1.712  1.00  0.00    -0.341 N 
ATOM     34  O   ARG A   5      -3.806   0.839  -0.497  1.00  0.00    -0.273 OA
ATOM     35  H   UNL     1      -4.272  -0.407   2.478  1.00  0.00     0.164 HD
BRANCH  33  36
ATOM     36  CA  ASN A   6      -5.192   1.485   1.921  1.00  0.00     0.201 C 
BRANCH  36  37
ATOM     37  C   ASN A   6      -5.128   1.910   3.363  1.00  0.00     0.326 C 
ATOM     38  O   ASN A   6      -5.388   1.088   4.282  1.00  0.00    -0.250 OA
BRANCH  37  39
ATOM     39  OXT ASN A   6      -4.826   3.232   3.682  1.00  0.00    -0.480 OA
ATOM     40  H   UNL     1      -4.793   3.539   4.647  1.00  0.00     0.296 HD
ENDBRANCH  37  39
ENDBRANCH  36  37
BRANCH  36  41
ATOM     41  CB  ASN A   6      -6.651   1.197   1.525  1.00  0.00     0.136 C 
BRANCH  41  42
ATOM     42  CG  ASN A   6      -6.817   1.066   0.039  1.00  0.00     0.220 C 
ATOM     43  ND2 ASN A   6      -6.737   2.217  -0.801  1.00  0.00    -0.370 N 
ATOM     44  OD1 ASN A   6      -7.006  -0.070  -0.476  1.00  0.00    -0.275 OA
ATOM     45  H   UNL     1      -6.826   2.121  -1.837  1.00  0.00     0.159 HD
ATOM     46  H   UNL     1      -6.578   3.164  -0.389  1.00  0.00     0.159 HD
ENDBRANCH  41  42
ENDBRANCH  36  41
ENDBRANCH  33  36
ENDBRANCH  31  32
BRANCH  31  47
ATOM     47  CB  ARG A   5      -3.350  -2.467   0.721  1.00  0.00     0.037 C 
BRANCH  47  48
ATOM     48  CG  ARG A   5      -4.666  -2.789  -0.012  1.00  0.00     0.024 C 
BRANCH  48  49
ATOM     49  CD  ARG A   5      -4.503  -2.864  -1.537  1.00  0.00     0.116 C 
BRANCH  49  50
ATOM     50  NE  ARG A   5      -5.734  -3.343  -2.170  1.00  0.00    -0.357 N 
ATOM     51  CZ  ARG A   5      -5.872  -3.524  -3.591  1.00  0.00     0.185 C 
ATOM     52  NH2 ARG A   5      -7.101  -4.025  -4.117  1.00  0.00    -0.370 N 
ATOM     53  H   UNL     1      -6.562  -3.571  -1.573  1.00  0.00     0.163 HD
ATOM     54  H   UNL     1      -7.893  -4.264  -3.480  1.00  0.00     0.159 HD
ATOM     55  H   UNL     1      -7.222  -4.165  -5.145  1.00  0.00     0.159 HD
BRANCH  51  56
ATOM     56  NH1 ARG A   5      -4.906  -3.240  -4.410  1.00  0.00    -0.270 NA
ATOM     57  H   UNL     1      -3.980  -2.868  -4.105  1.00  0.00     0.191 HD
ENDBRANCH  51  56
ENDBRANCH  49  50
ENDBRANCH  48  49
ENDBRANCH  47  48
ENDBRANCH  31  47
ENDBRANCH  28  31
ENDBRANCH  26  27
BRANCH  26  58
ATOM     58  CB  LEU A   4       0.049   1.292   3.045  1.00  0.00     0.038 C 
BRANCH  58  59
ATOM     59  CG  LEU A   4      -0.902   2.482   2.739  1.00  0.00    -0.015 C 
ATOM     60  CD1 LEU A   4      -0.217   3.589   1.928  1.00  0.00     0.007 C 
ATOM     61  CD2 LEU A   4      -1.445   3.062   4.051  1.00  0.00     0.007 C 
ENDBRANCH  58  59
ENDBRANCH  26  58
ENDBRANCH   3  26
TORSDOF 26
