REMARK SMILES CC(C)C[C@H](NC(=O)[C@H](CCCCN)NC(=O)[C@H](Cc1ccccc1)NC(=O)[C@@H](N)CO)C(=O)NCC(=O)N[C@@H](CC(N)=O)C(=O)O
REMARK SMILES IDX 7 1 8 2 6 3 9 5 15 6 16 7 17 8 18 10 26 11 27 12 28 13 29 15
REMARK SMILES IDX 30 16 31 19 32 20 19 22 20 23 21 24 25 25 22 26 24 27 23 28
REMARK SMILES IDX 10 29 11 30 12 31 13 32 14 33 5 36 33 37 35 38 34 39 36 41
REMARK SMILES IDX 37 42 39 43 38 44 40 46 45 47 46 48 47 49 41 51 42 52 43 53
REMARK SMILES IDX 44 54 4 57 2 58 1 59 3 60
REMARK H PARENT 6 4 15 9 26 14 30 17 30 18 32 21 14 34 14 35 35 40 39 45 47 50
REMARK H PARENT 43 55 43 56
ROOT
ATOM      1  C   LYS A   3      20.037  10.082  -6.473  1.00  0.00     0.243 C 
ATOM      2  O   LYS A   3      20.147   9.159  -5.618  1.00  0.00    -0.273 OA
ATOM      3  N   LEU A   4      20.572   9.923  -7.776  1.00  0.00    -0.343 N 
ATOM      4  H   UNL     1      20.416  10.667  -8.494  1.00  0.00     0.164 HD
ENDROOT
BRANCH   1   5
ATOM      5  CA  LYS A   3      19.335  11.356  -6.141  1.00  0.00     0.171 C 
BRANCH   5   6
ATOM      6  N   LYS A   3      18.086  11.048  -5.498  1.00  0.00    -0.343 N 
ATOM      7  C   PHE A   2      16.885  11.750  -5.772  1.00  0.00     0.243 C 
ATOM      8  O   PHE A   2      16.901  12.792  -6.483  1.00  0.00    -0.273 OA
ATOM      9  H   UNL     1      18.163  10.513  -4.607  1.00  0.00     0.164 HD
BRANCH   7  10
ATOM     10  CA  PHE A   2      15.649  11.314  -5.058  1.00  0.00     0.175 C 
BRANCH  10  11
ATOM     11  N   PHE A   2      14.453  11.741  -5.768  1.00  0.00    -0.343 N 
ATOM     12  C   SER A   1      13.915  13.051  -5.637  1.00  0.00     0.239 C 
ATOM     13  O   SER A   1      14.443  13.871  -4.836  1.00  0.00    -0.273 OA
ATOM     14  H   UNL     1      13.863  11.001  -6.209  1.00  0.00     0.164 HD
BRANCH  12  15
ATOM     15  CA  SER A   1      12.661  13.411  -6.389  1.00  0.00     0.167 C 
BRANCH  15  16
ATOM     16  N   SER A   1      12.471  14.863  -6.377  1.00  0.00    -0.318 NA
ATOM     17  H   UNL     1      13.202  15.318  -6.972  1.00  0.00     0.119 HD
ATOM     18  H   UNL     1      11.539  15.087  -6.794  1.00  0.00     0.119 HD
ENDBRANCH  15  16
BRANCH  15  19
ATOM     19  CB  SER A   1      12.687  12.879  -7.845  1.00  0.00     0.184 C 
BRANCH  19  20
ATOM     20  OG  SER A   1      11.436  13.047  -8.452  1.00  0.00    -0.394 OA
ATOM     21  H   UNL     1      10.832  12.367  -8.054  1.00  0.00     0.210 HD
ENDBRANCH  19  20
ENDBRANCH  15  19
ENDBRANCH  12  15
ENDBRANCH  10  11
BRANCH  10  22
ATOM     22  CB  PHE A   2      15.612   9.774  -4.891  1.00  0.00     0.070 C 
BRANCH  22  23
ATOM     23  CG  PHE A   2      14.444   9.289  -4.090  1.00  0.00    -0.045 A 
ATOM     24  CD1 PHE A   2      13.903  10.046  -3.032  1.00  0.00     0.004 A 
ATOM     25  CD2 PHE A   2      13.968   7.989  -4.310  1.00  0.00     0.004 A 
ATOM     26  CE1 PHE A   2      12.869   9.535  -2.260  1.00  0.00     0.000 A 
ATOM     27  CE2 PHE A   2      12.939   7.477  -3.521  1.00  0.00     0.000 A 
ATOM     28  CZ  PHE A   2      12.386   8.252  -2.502  1.00  0.00     0.000 A 
ENDBRANCH  22  23
ENDBRANCH  10  22
ENDBRANCH   7  10
ENDBRANCH   5   6
BRANCH   5  29
ATOM     29  CB  LYS A   3      20.186  12.253  -5.239  1.00  0.00     0.035 C 
BRANCH  29  30
ATOM     30  CG  LYS A   3      20.427  11.703  -3.814  1.00  0.00     0.004 C 
BRANCH  30  31
ATOM     31  CD  LYS A   3      21.815  12.084  -3.288  1.00  0.00     0.015 C 
BRANCH  31  32
ATOM     32  CE  LYS A   3      22.038  13.602  -3.136  1.00  0.00     0.077 C 
BRANCH  32  33
ATOM     33  NZ  LYS A   3      21.151  14.205  -2.141  1.00  0.00    -0.330 NA
ATOM     34  H   UNL     1      20.177  14.232  -2.521  1.00  0.00     0.118 HD
ATOM     35  H   UNL     1      21.148  13.619  -1.275  1.00  0.00     0.118 HD
ENDBRANCH  32  33
ENDBRANCH  31  32
ENDBRANCH  30  31
ENDBRANCH  29  30
ENDBRANCH   5  29
ENDBRANCH   1   5
BRANCH   3  36
ATOM     36  CA  LEU A   4      21.358   8.762  -8.141  1.00  0.00     0.171 C 
BRANCH  36  37
ATOM     37  C   LEU A   4      22.728   9.219  -8.515  1.00  0.00     0.243 C 
ATOM     38  N   GLY A   5      23.834   8.755  -7.748  1.00  0.00    -0.345 N 
ATOM     39  O   LEU A   4      22.897  10.024  -9.471  1.00  0.00    -0.273 OA
ATOM     40  H   UNL     1      23.672   8.095  -6.953  1.00  0.00     0.164 HD
BRANCH  38  41
ATOM     41  CA  GLY A   5      25.205   9.125  -8.036  1.00  0.00     0.216 C 
BRANCH  41  42
ATOM     42  C   GLY A   5      25.895   7.974  -8.676  1.00  0.00     0.240 C 
ATOM     43  N   ASN A   6      25.905   7.875 -10.094  1.00  0.00    -0.341 N 
ATOM     44  O   GLY A   5      26.449   7.095  -7.964  1.00  0.00    -0.273 OA
ATOM     45  H   UNL     1      25.479   8.661 -10.637  1.00  0.00     0.164 HD
BRANCH  43  46
ATOM     46  CA  ASN A   6      26.536   6.760 -10.798  1.00  0.00     0.201 C 
BRANCH  46  47
ATOM     47  C   ASN A   6      27.987   6.647 -10.411  1.00  0.00     0.326 C 
ATOM     48  O   ASN A   6      28.792   7.579 -10.677  1.00  0.00    -0.250 OA
BRANCH  47  49
ATOM     49  OXT ASN A   6      28.441   5.504  -9.760  1.00  0.00    -0.480 OA
ATOM     50  H   UNL     1      29.414   5.410  -9.492  1.00  0.00     0.296 HD
ENDBRANCH  47  49
ENDBRANCH  46  47
BRANCH  46  51
ATOM     51  CB  ASN A   6      26.421   6.954 -12.318  1.00  0.00     0.136 C 
BRANCH  51  52
ATOM     52  CG  ASN A   6      25.008   7.183 -12.771  1.00  0.00     0.220 C 
ATOM     53  ND2 ASN A   6      24.752   8.091 -13.834  1.00  0.00    -0.370 N 
ATOM     54  OD1 ASN A   6      24.052   6.558 -12.243  1.00  0.00    -0.275 OA
ATOM     55  H   UNL     1      23.773   8.254 -14.160  1.00  0.00     0.159 HD
ATOM     56  H   UNL     1      25.531   8.602 -14.305  1.00  0.00     0.159 HD
ENDBRANCH  51  52
ENDBRANCH  46  51
ENDBRANCH  43  46
ENDBRANCH  41  42
ENDBRANCH  38  41
ENDBRANCH  36  37
BRANCH  36  57
ATOM     57  CB  LEU A   4      20.663   8.002  -9.274  1.00  0.00     0.038 C 
BRANCH  57  58
ATOM     58  CG  LEU A   4      21.452   6.771  -9.769  1.00  0.00    -0.015 C 
ATOM     59  CD1 LEU A   4      21.767   5.781  -8.638  1.00  0.00     0.007 C 
ATOM     60  CD2 LEU A   4      20.662   6.067 -10.875  1.00  0.00     0.007 C 
ENDBRANCH  57  58
ENDBRANCH  36  57
ENDBRANCH   3  36
TORSDOF 26
