REMARK SMILES CC(C)C[C@H](NC(=O)[C@H](C)NC(=O)[C@@H](N)CO)C(=O)N[C@@H](Cc1ccc(O)cc1)C(=O)N[C@@H](CCCNC(=N)N)C(=O)N[C@@H](CC(N)=O)C(=O)O
REMARK SMILES IDX 18 1 19 2 20 3 5 5 6 6 7 7 8 8 9 10 10 11 11 12 12 13 13 14
REMARK SMILES IDX 14 16 15 17 16 20 17 21 4 23 2 24 1 25 3 26 21 27 30 28
REMARK SMILES IDX 32 29 31 30 33 32 41 33 43 34 42 35 44 37 49 38 50 39 51 40
REMARK SMILES IDX 45 42 46 43 47 44 48 45 34 48 35 49 36 50 37 51 38 52 40 53
REMARK SMILES IDX 39 57 22 59 23 60 24 61 29 62 25 63 28 64 26 65 27 66
REMARK H PARENT 20 4 6 9 11 15 15 18 15 19 17 22 32 31 43 36 51 41 47 46 47 47
REMARK H PARENT 37 54 40 55 40 56 39 58 27 67
ROOT
ATOM      1  C   LEU A   3      20.045  10.077  -6.472  1.00  0.00     0.243 C 
ATOM      2  O   LEU A   3      20.163   9.153  -5.620  1.00  0.00    -0.273 OA
ATOM      3  N   TYR A   4      20.569   9.916  -7.780  1.00  0.00    -0.342 N 
ATOM      4  H   UNL     1      20.407  10.659  -8.498  1.00  0.00     0.164 HD
ENDROOT
BRANCH   1   5
ATOM      5  CA  LEU A   3      19.321  11.338  -6.135  1.00  0.00     0.171 C 
BRANCH   5   6
ATOM      6  N   LEU A   3      18.059  10.997  -5.523  1.00  0.00    -0.343 N 
ATOM      7  C   ALA A   2      16.870  11.742  -5.738  1.00  0.00     0.242 C 
ATOM      8  O   ALA A   2      16.895  12.792  -6.440  1.00  0.00    -0.273 OA
ATOM      9  H   UNL     1      18.083  10.279  -4.767  1.00  0.00     0.164 HD
BRANCH   7  10
ATOM     10  CA  ALA A   2      15.616  11.294  -5.039  1.00  0.00     0.168 C 
ATOM     11  CB  ALA A   2      15.560   9.763  -4.898  1.00  0.00     0.041 C 
BRANCH  10  12
ATOM     12  N   ALA A   2      14.438  11.733  -5.767  1.00  0.00    -0.343 N 
ATOM     13  C   SER A   1      13.913  13.048  -5.636  1.00  0.00     0.239 C 
ATOM     14  O   SER A   1      14.449  13.863  -4.835  1.00  0.00    -0.273 OA
ATOM     15  H   UNL     1      13.851  11.002  -6.224  1.00  0.00     0.164 HD
BRANCH  13  16
ATOM     16  CA  SER A   1      12.659  13.414  -6.389  1.00  0.00     0.167 C 
BRANCH  16  17
ATOM     17  N   SER A   1      12.455  14.864  -6.398  1.00  0.00    -0.318 NA
ATOM     18  H   UNL     1      13.317  15.340  -6.753  1.00  0.00     0.119 HD
ATOM     19  H   UNL     1      12.285  15.192  -5.419  1.00  0.00     0.119 HD
ENDBRANCH  16  17
BRANCH  16  20
ATOM     20  CB  SER A   1      12.689  12.893  -7.845  1.00  0.00     0.184 C 
BRANCH  20  21
ATOM     21  OG  SER A   1      11.435  13.054  -8.447  1.00  0.00    -0.394 OA
ATOM     22  H   UNL     1      10.842  12.356  -8.065  1.00  0.00     0.210 HD
ENDBRANCH  20  21
ENDBRANCH  16  20
ENDBRANCH  13  16
ENDBRANCH  10  12
ENDBRANCH   7  10
ENDBRANCH   5   6
BRANCH   5  23
ATOM     23  CB  LEU A   3      20.148  12.244  -5.213  1.00  0.00     0.038 C 
BRANCH  23  24
ATOM     24  CG  LEU A   3      20.411  11.674  -3.791  1.00  0.00    -0.015 C 
ATOM     25  CD1 LEU A   3      21.812  12.070  -3.319  1.00  0.00     0.007 C 
ATOM     26  CD2 LEU A   3      19.361  12.157  -2.781  1.00  0.00     0.007 C 
ENDBRANCH  23  24
ENDBRANCH   5  23
ENDBRANCH   1   5
BRANCH   3  27
ATOM     27  CA  TYR A   4      21.352   8.750  -8.147  1.00  0.00     0.175 C 
BRANCH  27  28
ATOM     28  C   TYR A   4      22.716   9.205  -8.528  1.00  0.00     0.243 C 
ATOM     29  N   ARG A   5      23.823   8.716  -7.788  1.00  0.00    -0.343 N 
ATOM     30  O   TYR A   4      22.879  10.027  -9.471  1.00  0.00    -0.273 OA
ATOM     31  H   UNL     1      23.669   8.015  -7.027  1.00  0.00     0.164 HD
BRANCH  29  32
ATOM     32  CA  ARG A   5      25.186   9.120  -8.073  1.00  0.00     0.171 C 
BRANCH  32  33
ATOM     33  C   ARG A   5      25.901   7.967  -8.686  1.00  0.00     0.243 C 
ATOM     34  N   ASN A   6      25.914   7.864 -10.103  1.00  0.00    -0.341 N 
ATOM     35  O   ARG A   5      26.448   7.086  -7.970  1.00  0.00    -0.273 OA
ATOM     36  H   UNL     1      25.489   8.647 -10.651  1.00  0.00     0.164 HD
BRANCH  34  37
ATOM     37  CA  ASN A   6      26.543   6.751 -10.805  1.00  0.00     0.201 C 
BRANCH  37  38
ATOM     38  C   ASN A   6      27.993   6.642 -10.415  1.00  0.00     0.326 C 
ATOM     39  O   ASN A   6      28.795   7.578 -10.676  1.00  0.00    -0.250 OA
BRANCH  38  40
ATOM     40  OXT ASN A   6      28.450   5.499  -9.766  1.00  0.00    -0.480 OA
ATOM     41  H   UNL     1      29.423   5.408  -9.496  1.00  0.00     0.296 HD
ENDBRANCH  38  40
ENDBRANCH  37  38
BRANCH  37  42
ATOM     42  CB  ASN A   6      26.429   6.950 -12.325  1.00  0.00     0.136 C 
BRANCH  42  43
ATOM     43  CG  ASN A   6      25.017   7.186 -12.776  1.00  0.00     0.220 C 
ATOM     44  ND2 ASN A   6      24.759   8.093 -13.838  1.00  0.00    -0.370 N 
ATOM     45  OD1 ASN A   6      24.061   6.570 -12.241  1.00  0.00    -0.275 OA
ATOM     46  H   UNL     1      25.539   8.599 -14.314  1.00  0.00     0.159 HD
ATOM     47  H   UNL     1      23.780   8.261 -14.159  1.00  0.00     0.159 HD
ENDBRANCH  42  43
ENDBRANCH  37  42
ENDBRANCH  34  37
ENDBRANCH  32  33
BRANCH  32  48
ATOM     48  CB  ARG A   5      25.862   9.603  -6.794  1.00  0.00     0.037 C 
BRANCH  48  49
ATOM     49  CG  ARG A   5      25.164  10.858  -6.270  1.00  0.00     0.024 C 
BRANCH  49  50
ATOM     50  CD  ARG A   5      25.839  11.391  -5.014  1.00  0.00     0.116 C 
BRANCH  50  51
ATOM     51  NE  ARG A   5      25.378  10.686  -3.820  1.00  0.00    -0.357 N 
ATOM     52  CZ  ARG A   5      25.469  11.281  -2.526  1.00  0.00     0.185 C 
ATOM     53  NH2 ARG A   5      26.107  12.546  -2.352  1.00  0.00    -0.370 N 
ATOM     54  H   UNL     1      24.895   9.763  -3.912  1.00  0.00     0.163 HD
ATOM     55  H   UNL     1      26.080  13.024  -1.423  1.00  0.00     0.159 HD
ATOM     56  H   UNL     1      26.697  12.982  -3.093  1.00  0.00     0.159 HD
BRANCH  52  57
ATOM     57  NH1 ARG A   5      24.954  10.672  -1.507  1.00  0.00    -0.270 NA
ATOM     58  H   UNL     1      24.995  11.076  -0.545  1.00  0.00     0.191 HD
ENDBRANCH  52  57
ENDBRANCH  50  51
ENDBRANCH  49  50
ENDBRANCH  48  49
ENDBRANCH  32  48
ENDBRANCH  29  32
ENDBRANCH  27  28
BRANCH  27  59
ATOM     59  CB  TYR A   4      20.660   7.990  -9.281  1.00  0.00     0.070 C 
BRANCH  59  60
ATOM     60  CG  TYR A   4      21.387   6.752  -9.778  1.00  0.00    -0.045 A 
ATOM     61  CD1 TYR A   4      22.160   5.926  -8.935  1.00  0.00     0.007 A 
ATOM     62  CD2 TYR A   4      21.111   6.307 -11.084  1.00  0.00     0.007 A 
ATOM     63  CE1 TYR A   4      22.695   4.726  -9.413  1.00  0.00     0.046 A 
ATOM     64  CE2 TYR A   4      21.620   5.090 -11.547  1.00  0.00     0.046 A 
ATOM     65  CZ  TYR A   4      22.425   4.302 -10.716  1.00  0.00     0.115 A 
BRANCH  65  66
ATOM     66  OH  TYR A   4      22.957   3.099 -11.174  1.00  0.00    -0.508 OA
ATOM     67  H   UNL     1      22.780   2.766 -12.114  1.00  0.00     0.293 HD
ENDBRANCH  65  66
ENDBRANCH  59  60
ENDBRANCH  27  59
ENDBRANCH   3  27
TORSDOF 27
