REMARK SMILES CC[C@H](C)[C@H](NC(=O)[C@H](Cc1ccccc1)NC(=O)[C@@H](N)CO)C(=O)N[C@@H](CC(N)=O)C(=O)N[C@@H](CCCNC(=N)N)C(=O)N[C@@H](CC(N)=O)C(=O)O
REMARK SMILES IDX 24 1 25 2 26 3 5 5 6 6 7 7 8 8 9 10 17 11 18 12 19 13 20 15
REMARK SMILES IDX 21 16 22 19 23 20 10 22 11 23 12 24 16 25 13 26 15 27 14 28
REMARK SMILES IDX 3 29 4 30 2 31 1 32 27 33 32 34 34 35 33 36 35 38 43 39
REMARK SMILES IDX 45 40 44 41 46 43 51 44 52 45 53 46 47 48 48 49 49 50 50 51
REMARK SMILES IDX 36 54 37 55 38 56 39 57 40 58 42 59 41 63 28 65 29 66 30 67
REMARK SMILES IDX 31 68
REMARK H PARENT 26 4 6 9 17 14 21 17 21 18 23 21 34 37 45 42 53 47 49 52 49 53
REMARK H PARENT 39 60 42 61 42 62 41 64 30 69 30 70
ROOT
ATOM      1  C   ILE A   3      20.035  10.079  -6.472  1.00  0.00     0.243 C 
ATOM      2  O   ILE A   3      20.148   9.159  -5.616  1.00  0.00    -0.273 OA
ATOM      3  N   ASN A   4      20.564   9.913  -7.778  1.00  0.00    -0.342 N 
ATOM      4  H   UNL     1      20.408  10.657  -8.497  1.00  0.00     0.164 HD
ENDROOT
BRANCH   1   5
ATOM      5  CA  ILE A   3      19.337  11.360  -6.141  1.00  0.00     0.174 C 
BRANCH   5   6
ATOM      6  N   ILE A   3      18.087  11.053  -5.494  1.00  0.00    -0.342 N 
ATOM      7  C   PHE A   2      16.882  11.747  -5.776  1.00  0.00     0.243 C 
ATOM      8  O   PHE A   2      16.893  12.783  -6.495  1.00  0.00    -0.273 OA
ATOM      9  H   UNL     1      18.165  10.525  -4.599  1.00  0.00     0.164 HD
BRANCH   7  10
ATOM     10  CA  PHE A   2      15.648  11.312  -5.060  1.00  0.00     0.175 C 
BRANCH  10  11
ATOM     11  N   PHE A   2      14.450  11.739  -5.768  1.00  0.00    -0.343 N 
ATOM     12  C   SER A   1      13.913  13.049  -5.637  1.00  0.00     0.239 C 
ATOM     13  O   SER A   1      14.448  13.869  -4.840  1.00  0.00    -0.273 OA
ATOM     14  H   UNL     1      13.857  10.998  -6.203  1.00  0.00     0.164 HD
BRANCH  12  15
ATOM     15  CA  SER A   1      12.654  13.410  -6.387  1.00  0.00     0.167 C 
BRANCH  15  16
ATOM     16  N   SER A   1      12.467  14.862  -6.384  1.00  0.00    -0.318 NA
ATOM     17  H   UNL     1      12.301  15.172  -5.399  1.00  0.00     0.119 HD
ATOM     18  H   UNL     1      11.583  15.089  -6.895  1.00  0.00     0.119 HD
ENDBRANCH  15  16
BRANCH  15  19
ATOM     19  CB  SER A   1      12.698  12.895  -7.844  1.00  0.00     0.184 C 
BRANCH  19  20
ATOM     20  OG  SER A   1      11.440  13.041  -8.441  1.00  0.00    -0.394 OA
ATOM     21  H   UNL     1      11.550  12.779  -9.392  1.00  0.00     0.210 HD
ENDBRANCH  19  20
ENDBRANCH  15  19
ENDBRANCH  12  15
ENDBRANCH  10  11
BRANCH  10  22
ATOM     22  CB  PHE A   2      15.613   9.773  -4.892  1.00  0.00     0.070 C 
BRANCH  22  23
ATOM     23  CG  PHE A   2      14.445   9.288  -4.089  1.00  0.00    -0.045 A 
ATOM     24  CD1 PHE A   2      13.904  10.046  -3.032  1.00  0.00     0.004 A 
ATOM     25  CD2 PHE A   2      13.969   7.989  -4.309  1.00  0.00     0.004 A 
ATOM     26  CE1 PHE A   2      12.869   9.535  -2.260  1.00  0.00     0.000 A 
ATOM     27  CE2 PHE A   2      12.939   7.477  -3.521  1.00  0.00     0.000 A 
ATOM     28  CZ  PHE A   2      12.386   8.252  -2.502  1.00  0.00     0.000 A 
ENDBRANCH  22  23
ENDBRANCH  10  22
ENDBRANCH   7  10
ENDBRANCH   5   6
BRANCH   5  29
ATOM     29  CB  ILE A   3      20.209  12.261  -5.241  1.00  0.00     0.018 C 
ATOM     30  CG1 ILE A   3      19.651  13.693  -5.177  1.00  0.00     0.010 C 
BRANCH  29  31
ATOM     31  CG2 ILE A   3      20.433  11.699  -3.809  1.00  0.00     0.002 C 
ATOM     32  CD1 ILE A   3      21.818  12.069  -3.293  1.00  0.00     0.004 C 
ENDBRANCH  29  31
ENDBRANCH   5  29
ENDBRANCH   1   5
BRANCH   3  33
ATOM     33  CA  ASN A   4      21.345   8.747  -8.149  1.00  0.00     0.180 C 
BRANCH  33  34
ATOM     34  C   ASN A   4      22.711   9.203  -8.529  1.00  0.00     0.243 C 
ATOM     35  N   ARG A   5      23.819   8.708  -7.792  1.00  0.00    -0.343 N 
ATOM     36  O   ASN A   4      22.875  10.028  -9.469  1.00  0.00    -0.273 OA
ATOM     37  H   UNL     1      23.665   7.981  -7.055  1.00  0.00     0.164 HD
BRANCH  35  38
ATOM     38  CA  ARG A   5      25.182   9.118  -8.073  1.00  0.00     0.171 C 
BRANCH  38  39
ATOM     39  C   ARG A   5      25.902   7.968  -8.686  1.00  0.00     0.243 C 
ATOM     40  N   ASN A   6      25.915   7.865 -10.103  1.00  0.00    -0.341 N 
ATOM     41  O   ARG A   5      26.450   7.087  -7.970  1.00  0.00    -0.273 OA
ATOM     42  H   UNL     1      25.490   8.648 -10.651  1.00  0.00     0.164 HD
BRANCH  40  43
ATOM     43  CA  ASN A   6      26.544   6.752 -10.805  1.00  0.00     0.201 C 
BRANCH  43  44
ATOM     44  C   ASN A   6      27.994   6.642 -10.415  1.00  0.00     0.326 C 
ATOM     45  O   ASN A   6      28.796   7.579 -10.676  1.00  0.00    -0.250 OA
BRANCH  44  46
ATOM     46  OXT ASN A   6      28.452   5.499  -9.767  1.00  0.00    -0.480 OA
ATOM     47  H   UNL     1      29.424   5.409  -9.497  1.00  0.00     0.296 HD
ENDBRANCH  44  46
ENDBRANCH  43  44
BRANCH  43  48
ATOM     48  CB  ASN A   6      26.430   6.950 -12.325  1.00  0.00     0.136 C 
BRANCH  48  49
ATOM     49  CG  ASN A   6      25.017   7.181 -12.776  1.00  0.00     0.220 C 
ATOM     50  ND2 ASN A   6      24.757   8.092 -13.834  1.00  0.00    -0.370 N 
ATOM     51  OD1 ASN A   6      24.063   6.553 -12.249  1.00  0.00    -0.275 OA
ATOM     52  H   UNL     1      23.777   8.256 -14.158  1.00  0.00     0.159 HD
ATOM     53  H   UNL     1      25.534   8.606 -14.305  1.00  0.00     0.159 HD
ENDBRANCH  48  49
ENDBRANCH  43  48
ENDBRANCH  40  43
ENDBRANCH  38  39
BRANCH  38  54
ATOM     54  CB  ARG A   5      25.856   9.600  -6.793  1.00  0.00     0.037 C 
BRANCH  54  55
ATOM     55  CG  ARG A   5      25.162  10.857  -6.270  1.00  0.00     0.024 C 
BRANCH  55  56
ATOM     56  CD  ARG A   5      25.838  11.390  -5.014  1.00  0.00     0.116 C 
BRANCH  56  57
ATOM     57  NE  ARG A   5      25.378  10.686  -3.820  1.00  0.00    -0.357 N 
ATOM     58  CZ  ARG A   5      25.469  11.281  -2.527  1.00  0.00     0.185 C 
ATOM     59  NH2 ARG A   5      26.107  12.546  -2.352  1.00  0.00    -0.370 N 
ATOM     60  H   UNL     1      24.895   9.762  -3.911  1.00  0.00     0.163 HD
ATOM     61  H   UNL     1      26.080  13.024  -1.424  1.00  0.00     0.159 HD
ATOM     62  H   UNL     1      26.696  12.982  -3.094  1.00  0.00     0.159 HD
BRANCH  58  63
ATOM     63  NH1 ARG A   5      24.955  10.672  -1.507  1.00  0.00    -0.270 NA
ATOM     64  H   UNL     1      24.995  11.077  -0.545  1.00  0.00     0.191 HD
ENDBRANCH  58  63
ENDBRANCH  56  57
ENDBRANCH  55  56
ENDBRANCH  54  55
ENDBRANCH  38  54
ENDBRANCH  35  38
ENDBRANCH  33  34
BRANCH  33  65
ATOM     65  CB  ASN A   4      20.646   7.995  -9.284  1.00  0.00     0.134 C 
BRANCH  65  66
ATOM     66  CG  ASN A   4      21.416   6.790  -9.755  1.00  0.00     0.220 C 
ATOM     67  ND2 ASN A   4      21.828   5.771  -8.843  1.00  0.00    -0.370 N 
ATOM     68  OD1 ASN A   4      21.643   6.649 -10.985  1.00  0.00    -0.275 OA
ATOM     69  H   UNL     1      22.375   4.951  -9.187  1.00  0.00     0.159 HD
ATOM     70  H   UNL     1      21.561   5.807  -7.835  1.00  0.00     0.159 HD
ENDBRANCH  65  66
ENDBRANCH  33  65
ENDBRANCH   3  33
TORSDOF 28
