REMARK SMILES CC(C)C[C@H](NC(=O)[C@H](Cc1ccccc1)NC(=O)[C@@H](N)CO)C(=O)N[C@@H](Cc1c[nH]cn1)C(=O)N[C@@H](CCCNC(=N)N)C(=O)NCC(=O)O
REMARK SMILES IDX 24 1 25 2 26 3 5 5 6 6 7 7 8 8 9 10 17 11 18 12 19 13 20 15
REMARK SMILES IDX 21 16 22 19 23 20 10 22 11 23 12 24 16 25 13 26 15 27 14 28
REMARK SMILES IDX 4 29 2 30 1 31 3 32 27 33 34 34 36 35 35 36 37 38 45 39
REMARK SMILES IDX 47 40 46 41 48 43 49 44 50 45 51 46 38 48 39 49 40 50 41 51
REMARK SMILES IDX 42 52 44 53 43 57 28 59 29 60 33 61 30 62 32 63 31 64
REMARK H PARENT 26 4 6 9 17 14 21 17 21 18 23 21 36 37 47 42 51 47 41 54 44 55
REMARK H PARENT 44 56 43 58 31 65
ROOT
ATOM      1  C   LEU A   3      20.055  10.080  -6.478  1.00  0.00     0.243 C 
ATOM      2  O   LEU A   3      20.168   9.157  -5.624  1.00  0.00    -0.273 OA
ATOM      3  N   HIS A   4      20.562   9.907  -7.789  1.00  0.00    -0.342 N 
ATOM      4  H   UNL     1      20.397  10.648  -8.508  1.00  0.00     0.164 HD
ENDROOT
BRANCH   1   5
ATOM      5  CA  LEU A   3      19.342  11.351  -6.147  1.00  0.00     0.171 C 
BRANCH   5   6
ATOM      6  N   LEU A   3      18.084  11.019  -5.538  1.00  0.00    -0.343 N 
ATOM      7  C   PHE A   2      16.888  11.744  -5.776  1.00  0.00     0.243 C 
ATOM      8  O   PHE A   2      16.906  12.795  -6.474  1.00  0.00    -0.273 OA
ATOM      9  H   UNL     1      18.156  10.384  -4.719  1.00  0.00     0.164 HD
BRANCH   7  10
ATOM     10  CA  PHE A   2      15.653  11.312  -5.056  1.00  0.00     0.175 C 
BRANCH  10  11
ATOM     11  N   PHE A   2      14.457  11.739  -5.768  1.00  0.00    -0.343 N 
ATOM     12  C   SER A   1      13.917  13.048  -5.632  1.00  0.00     0.239 C 
ATOM     13  O   SER A   1      14.448  13.865  -4.831  1.00  0.00    -0.273 OA
ATOM     14  H   UNL     1      13.875  11.000  -6.220  1.00  0.00     0.164 HD
BRANCH  12  15
ATOM     15  CA  SER A   1      12.661  13.412  -6.387  1.00  0.00     0.167 C 
BRANCH  15  16
ATOM     16  N   SER A   1      12.458  14.862  -6.397  1.00  0.00    -0.318 NA
ATOM     17  H   UNL     1      12.292  15.192  -5.418  1.00  0.00     0.119 HD
ATOM     18  H   UNL     1      13.318  15.336  -6.757  1.00  0.00     0.119 HD
ENDBRANCH  15  16
BRANCH  15  19
ATOM     19  CB  SER A   1      12.690  12.888  -7.841  1.00  0.00     0.184 C 
BRANCH  19  20
ATOM     20  OG  SER A   1      11.437  13.050  -8.444  1.00  0.00    -0.394 OA
ATOM     21  H   UNL     1      11.386  13.993  -8.750  1.00  0.00     0.210 HD
ENDBRANCH  19  20
ENDBRANCH  15  19
ENDBRANCH  12  15
ENDBRANCH  10  11
BRANCH  10  22
ATOM     22  CB  PHE A   2      15.610   9.773  -4.880  1.00  0.00     0.070 C 
BRANCH  22  23
ATOM     23  CG  PHE A   2      14.435   9.292  -4.092  1.00  0.00    -0.045 A 
ATOM     24  CD1 PHE A   2      13.898  10.048  -3.033  1.00  0.00     0.004 A 
ATOM     25  CD2 PHE A   2      13.964   7.991  -4.310  1.00  0.00     0.004 A 
ATOM     26  CE1 PHE A   2      12.866   9.535  -2.258  1.00  0.00     0.000 A 
ATOM     27  CE2 PHE A   2      12.937   7.477  -3.520  1.00  0.00     0.000 A 
ATOM     28  CZ  PHE A   2      12.384   8.252  -2.500  1.00  0.00     0.000 A 
ENDBRANCH  22  23
ENDBRANCH  10  22
ENDBRANCH   7  10
ENDBRANCH   5   6
BRANCH   5  29
ATOM     29  CB  LEU A   3      20.165  12.251  -5.216  1.00  0.00     0.038 C 
BRANCH  29  30
ATOM     30  CG  LEU A   3      20.417  11.679  -3.791  1.00  0.00    -0.015 C 
ATOM     31  CD1 LEU A   3      21.819  12.066  -3.316  1.00  0.00     0.007 C 
ATOM     32  CD2 LEU A   3      19.369  12.169  -2.781  1.00  0.00     0.007 C 
ENDBRANCH  29  30
ENDBRANCH   5  29
ENDBRANCH   1   5
BRANCH   3  33
ATOM     33  CA  HIS A   4      21.345   8.744  -8.162  1.00  0.00     0.177 C 
BRANCH  33  34
ATOM     34  C   HIS A   4      22.711   9.207  -8.531  1.00  0.00     0.243 C 
ATOM     35  N   ARG A   5      23.820   8.708  -7.798  1.00  0.00    -0.343 N 
ATOM     36  O   HIS A   4      22.876  10.035  -9.468  1.00  0.00    -0.273 OA
ATOM     37  H   UNL     1      23.666   7.982  -7.061  1.00  0.00     0.164 HD
BRANCH  35  38
ATOM     38  CA  ARG A   5      25.183   9.115  -8.087  1.00  0.00     0.171 C 
BRANCH  38  39
ATOM     39  C   ARG A   5      25.899   7.960  -8.698  1.00  0.00     0.243 C 
ATOM     40  N   GLY A   6      25.892   7.822 -10.118  1.00  0.00    -0.343 N 
ATOM     41  O   ARG A   5      26.456   7.092  -7.973  1.00  0.00    -0.273 OA
ATOM     42  H   UNL     1      25.395   8.533 -10.701  1.00  0.00     0.164 HD
BRANCH  40  43
ATOM     43  CA  GLY A   6      26.552   6.715 -10.794  1.00  0.00     0.238 C 
BRANCH  43  44
ATOM     44  C   GLY A   6      28.001   6.644 -10.415  1.00  0.00     0.322 C 
ATOM     45  O   GLY A   6      28.781   7.588 -10.705  1.00  0.00    -0.250 OA
BRANCH  44  46
ATOM     46  OXT GLY A   6      28.485   5.528  -9.739  1.00  0.00    -0.480 OA
ATOM     47  H   UNL     1      29.460   5.464  -9.474  1.00  0.00     0.296 HD
ENDBRANCH  44  46
ENDBRANCH  43  44
ENDBRANCH  40  43
ENDBRANCH  38  39
BRANCH  38  48
ATOM     48  CB  ARG A   5      25.859   9.601  -6.806  1.00  0.00     0.037 C 
BRANCH  48  49
ATOM     49  CG  ARG A   5      25.163  10.856  -6.276  1.00  0.00     0.024 C 
BRANCH  49  50
ATOM     50  CD  ARG A   5      25.838  11.388  -5.019  1.00  0.00     0.116 C 
BRANCH  50  51
ATOM     51  NE  ARG A   5      25.377  10.683  -3.825  1.00  0.00    -0.357 N 
ATOM     52  CZ  ARG A   5      25.468  11.278  -2.529  1.00  0.00     0.185 C 
ATOM     53  NH2 ARG A   5      26.105  12.541  -2.353  1.00  0.00    -0.370 N 
ATOM     54  H   UNL     1      24.899   9.758  -3.923  1.00  0.00     0.163 HD
ATOM     55  H   UNL     1      26.690  12.983  -3.094  1.00  0.00     0.159 HD
ATOM     56  H   UNL     1      26.082  13.007  -1.418  1.00  0.00     0.159 HD
BRANCH  52  57
ATOM     57  NH1 ARG A   5      24.957  10.679  -1.501  1.00  0.00    -0.270 NA
ATOM     58  H   UNL     1      24.474   9.757  -1.585  1.00  0.00     0.191 HD
ENDBRANCH  52  57
ENDBRANCH  50  51
ENDBRANCH  49  50
ENDBRANCH  48  49
ENDBRANCH  38  48
ENDBRANCH  35  38
ENDBRANCH  33  34
BRANCH  33  59
ATOM     59  CB  HIS A   4      20.659   8.000  -9.309  1.00  0.00     0.093 C 
BRANCH  59  60
ATOM     60  CG  HIS A   4      21.446   6.797  -9.743  1.00  0.00     0.061 A 
ATOM     61  ND1 HIS A   4      22.314   6.798 -10.775  1.00  0.00    -0.242 NA
ATOM     62  CD2 HIS A   4      21.488   5.582  -9.096  1.00  0.00     0.107 A 
ATOM     63  CE1 HIS A   4      22.855   5.561 -10.743  1.00  0.00     0.196 A 
ATOM     64  NE2 HIS A   4      22.375   4.806  -9.738  1.00  0.00    -0.351 N 
ATOM     65  H   UNL     1      22.646   3.827  -9.499  1.00  0.00     0.167 HD
ENDBRANCH  59  60
ENDBRANCH  33  59
ENDBRANCH   3  33
TORSDOF 26
