REMARK SMILES CC(C)C[C@H](NC(=O)[C@H](Cc1ccccc1)NC(=O)CN)C(=O)N[C@@H](C)C(=O)N[C@@H](CCCNC(=N)N)C(=O)N[C@@H](CC(N)=O)C(=O)O
REMARK SMILES IDX 25 1 26 2 24 3 22 4 23 5 5 7 6 8 7 9 8 10 9 12 17 13 18 14
REMARK SMILES IDX 19 15 20 17 21 18 10 21 11 22 12 23 16 24 13 25 15 26 14 27
REMARK SMILES IDX 4 28 2 29 1 30 3 31 27 32 29 33 28 34 30 36 38 37 40 38
REMARK SMILES IDX 39 39 41 41 46 42 47 43 48 44 42 46 43 47 44 48 45 49 31 52
REMARK SMILES IDX 32 53 33 54 34 55 35 56 37 57 36 61
REMARK H PARENT 24 6 6 11 17 16 21 19 21 20 29 35 40 40 48 45 44 50 44 51
REMARK H PARENT 34 58 37 59 37 60 36 62
ROOT
ATOM      1  CA  ALA A   4      21.343   8.739  -8.145  1.00  0.00     0.168 C 
ATOM      2  CB  ALA A   4      20.662   8.005  -9.291  1.00  0.00     0.041 C 
ENDROOT
BRANCH   1   3
ATOM      3  N   ALA A   4      20.565   9.900  -7.762  1.00  0.00    -0.343 N 
ATOM      4  C   LEU A   3      20.068  10.081  -6.442  1.00  0.00     0.243 C 
ATOM      5  O   LEU A   3      20.203   9.182  -5.570  1.00  0.00    -0.273 OA
ATOM      6  H   UNL     1      20.397  10.638  -8.484  1.00  0.00     0.164 HD
BRANCH   4   7
ATOM      7  CA  LEU A   3      19.338  11.337  -6.134  1.00  0.00     0.171 C 
BRANCH   7   8
ATOM      8  N   LEU A   3      18.087  11.026  -5.502  1.00  0.00    -0.343 N 
ATOM      9  C   PHE A   2      16.891  11.745  -5.770  1.00  0.00     0.243 C 
ATOM     10  O   PHE A   2      16.918  12.792  -6.474  1.00  0.00    -0.273 OA
ATOM     11  H   UNL     1      18.153  10.401  -4.677  1.00  0.00     0.164 HD
BRANCH   9  12
ATOM     12  CA  PHE A   2      15.642  11.316  -5.078  1.00  0.00     0.175 C 
BRANCH  12  13
ATOM     13  N   PHE A   2      14.467  11.768  -5.816  1.00  0.00    -0.343 N 
ATOM     14  C   GLY A   1      13.904  13.059  -5.617  1.00  0.00     0.234 C 
ATOM     15  O   GLY A   1      14.433  13.863  -4.802  1.00  0.00    -0.274 OA
ATOM     16  H   UNL     1      14.074  11.161  -6.572  1.00  0.00     0.164 HD
BRANCH  14  17
ATOM     17  CA  GLY A   1      12.658  13.427  -6.360  1.00  0.00     0.178 C 
BRANCH  17  18
ATOM     18  N   GLY A   1      12.484  14.874  -6.398  1.00  0.00    -0.322 NA
ATOM     19  H   UNL     1      11.682  15.081  -7.037  1.00  0.00     0.119 HD
ATOM     20  H   UNL     1      12.192  15.195  -5.447  1.00  0.00     0.119 HD
ENDBRANCH  17  18
ENDBRANCH  14  17
ENDBRANCH  12  13
BRANCH  12  21
ATOM     21  CB  PHE A   2      15.584   9.778  -4.914  1.00  0.00     0.070 C 
BRANCH  21  22
ATOM     22  CG  PHE A   2      14.426   9.296  -4.103  1.00  0.00    -0.045 A 
ATOM     23  CD1 PHE A   2      13.896  10.051  -3.039  1.00  0.00     0.004 A 
ATOM     24  CD2 PHE A   2      13.959   7.992  -4.313  1.00  0.00     0.004 A 
ATOM     25  CE1 PHE A   2      12.869   9.537  -2.258  1.00  0.00     0.000 A 
ATOM     26  CE2 PHE A   2      12.938   7.477  -3.517  1.00  0.00     0.000 A 
ATOM     27  CZ  PHE A   2      12.387   8.253  -2.497  1.00  0.00     0.000 A 
ENDBRANCH  21  22
ENDBRANCH  12  21
ENDBRANCH   9  12
ENDBRANCH   7   8
BRANCH   7  28
ATOM     28  CB  LEU A   3      20.158  12.341  -5.313  1.00  0.00     0.038 C 
BRANCH  28  29
ATOM     29  CG  LEU A   3      20.434  12.204  -3.789  1.00  0.00    -0.015 C 
ATOM     30  CD1 LEU A   3      21.823  11.746  -3.387  1.00  0.00     0.007 C 
ATOM     31  CD2 LEU A   3      19.303  11.894  -2.820  1.00  0.00     0.007 C 
ENDBRANCH  28  29
ENDBRANCH   7  28
ENDBRANCH   4   7
ENDBRANCH   1   3
BRANCH   1  32
ATOM     32  C   ALA A   4      22.709   9.195  -8.526  1.00  0.00     0.242 C 
ATOM     33  N   ARG A   5      23.818   8.705  -7.788  1.00  0.00    -0.343 N 
ATOM     34  O   ALA A   4      22.872  10.023  -9.464  1.00  0.00    -0.273 OA
ATOM     35  H   UNL     1      23.666   7.983  -7.047  1.00  0.00     0.164 HD
BRANCH  33  36
ATOM     36  CA  ARG A   5      25.181   9.117  -8.072  1.00  0.00     0.171 C 
BRANCH  36  37
ATOM     37  C   ARG A   5      25.902   7.968  -8.686  1.00  0.00     0.243 C 
ATOM     38  N   ASN A   6      25.916   7.866 -10.103  1.00  0.00    -0.341 N 
ATOM     39  O   ARG A   5      26.450   7.087  -7.970  1.00  0.00    -0.273 OA
ATOM     40  H   UNL     1      25.496   8.651 -10.651  1.00  0.00     0.164 HD
BRANCH  38  41
ATOM     41  CA  ASN A   6      26.543   6.751 -10.804  1.00  0.00     0.201 C 
BRANCH  41  42
ATOM     42  C   ASN A   6      27.994   6.642 -10.417  1.00  0.00     0.326 C 
ATOM     43  O   ASN A   6      28.795   7.579 -10.677  1.00  0.00    -0.250 OA
BRANCH  42  44
ATOM     44  OXT ASN A   6      28.453   5.497  -9.772  1.00  0.00    -0.480 OA
ATOM     45  H   UNL     1      29.426   5.407  -9.504  1.00  0.00     0.296 HD
ENDBRANCH  42  44
ENDBRANCH  41  42
BRANCH  41  46
ATOM     46  CB  ASN A   6      26.424   6.946 -12.323  1.00  0.00     0.136 C 
BRANCH  46  47
ATOM     47  CG  ASN A   6      25.009   7.181 -12.772  1.00  0.00     0.220 C 
ATOM     48  ND2 ASN A   6      24.753   8.089 -13.834  1.00  0.00    -0.370 N 
ATOM     49  OD1 ASN A   6      24.051   6.563 -12.238  1.00  0.00    -0.275 OA
ATOM     50  H   UNL     1      25.533   8.595 -14.309  1.00  0.00     0.159 HD
ATOM     51  H   UNL     1      23.775   8.258 -14.156  1.00  0.00     0.159 HD
ENDBRANCH  46  47
ENDBRANCH  41  46
ENDBRANCH  38  41
ENDBRANCH  36  37
BRANCH  36  52
ATOM     52  CB  ARG A   5      25.856   9.601  -6.793  1.00  0.00     0.037 C 
BRANCH  52  53
ATOM     53  CG  ARG A   5      25.162  10.858  -6.270  1.00  0.00     0.024 C 
BRANCH  53  54
ATOM     54  CD  ARG A   5      25.837  11.390  -5.014  1.00  0.00     0.116 C 
BRANCH  54  55
ATOM     55  NE  ARG A   5      25.375  10.686  -3.820  1.00  0.00    -0.357 N 
ATOM     56  CZ  ARG A   5      25.468  11.281  -2.526  1.00  0.00     0.185 C 
ATOM     57  NH2 ARG A   5      26.108  12.546  -2.352  1.00  0.00    -0.370 N 
ATOM     58  H   UNL     1      24.890   9.765  -3.911  1.00  0.00     0.163 HD
ATOM     59  H   UNL     1      26.696  12.982  -3.094  1.00  0.00     0.159 HD
ATOM     60  H   UNL     1      26.082  13.023  -1.423  1.00  0.00     0.159 HD
BRANCH  56  61
ATOM     61  NH1 ARG A   5      24.954  10.672  -1.506  1.00  0.00    -0.270 NA
ATOM     62  H   UNL     1      24.996  11.076  -0.544  1.00  0.00     0.191 HD
ENDBRANCH  56  61
ENDBRANCH  54  55
ENDBRANCH  53  54
ENDBRANCH  52  53
ENDBRANCH  36  52
ENDBRANCH  33  36
ENDBRANCH   1  32
TORSDOF 24
