REMARK SMILES C[C@H](NC(=O)[C@H](Cc1ccc(O)cc1)NC(=O)[C@H](Cc1ccccc1)NC(=O)[C@@H](N)CO)C(=O)N[C@@H](CCCNC(=N)N)C(=O)N[C@@H](CC(N)=O)C(=O)O
REMARK SMILES IDX 4 1 5 2 3 3 6 5 15 6 16 7 17 8 18 10 26 11 27 12 28 13 29 15
REMARK SMILES IDX 30 16 31 19 32 20 19 22 20 23 21 24 25 25 22 26 24 27 23 28
REMARK SMILES IDX 7 29 8 30 9 31 14 32 10 33 13 34 11 35 12 36 2 38 1 39 33 40
REMARK SMILES IDX 35 41 34 42 36 44 44 45 46 46 45 47 47 49 52 50 53 51 54 52
REMARK SMILES IDX 48 54 49 55 50 56 51 57 37 60 38 61 39 62 40 63 41 64 43 65
REMARK SMILES IDX 42 69
REMARK H PARENT 3 4 15 9 26 14 30 17 30 18 32 21 12 37 35 43 46 48 54 53 50 58
REMARK H PARENT 50 59 40 66 43 67 43 68 42 70
ROOT
ATOM      1  C   TYR A   3      20.052  10.088  -6.464  1.00  0.00     0.243 C 
ATOM      2  O   TYR A   3      20.166   9.172  -5.603  1.00  0.00    -0.273 OA
ATOM      3  N   ALA A   4      20.559   9.911  -7.777  1.00  0.00    -0.343 N 
ATOM      4  H   UNL     1      20.395  10.652  -8.497  1.00  0.00     0.164 HD
ENDROOT
BRANCH   1   5
ATOM      5  CA  TYR A   3      19.350  11.363  -6.134  1.00  0.00     0.175 C 
BRANCH   5   6
ATOM      6  N   TYR A   3      18.091  11.041  -5.513  1.00  0.00    -0.342 N 
ATOM      7  C   PHE A   2      16.889  11.749  -5.774  1.00  0.00     0.243 C 
ATOM      8  O   PHE A   2      16.905  12.794  -6.482  1.00  0.00    -0.273 OA
ATOM      9  H   UNL     1      18.165  10.469  -4.647  1.00  0.00     0.164 HD
BRANCH   7  10
ATOM     10  CA  PHE A   2      15.653  11.314  -5.058  1.00  0.00     0.175 C 
BRANCH  10  11
ATOM     11  N   PHE A   2      14.457  11.741  -5.770  1.00  0.00    -0.343 N 
ATOM     12  C   SER A   1      13.914  13.050  -5.637  1.00  0.00     0.239 C 
ATOM     13  O   SER A   1      14.442  13.870  -4.836  1.00  0.00    -0.273 OA
ATOM     14  H   UNL     1      13.875  11.001  -6.219  1.00  0.00     0.164 HD
BRANCH  12  15
ATOM     15  CA  SER A   1      12.661  13.411  -6.390  1.00  0.00     0.167 C 
BRANCH  15  16
ATOM     16  N   SER A   1      12.475  14.863  -6.375  1.00  0.00    -0.318 NA
ATOM     17  H   UNL     1      13.174  15.314  -7.010  1.00  0.00     0.119 HD
ATOM     18  H   UNL     1      11.521  15.090  -6.739  1.00  0.00     0.119 HD
ENDBRANCH  15  16
BRANCH  15  19
ATOM     19  CB  SER A   1      12.688  12.878  -7.844  1.00  0.00     0.184 C 
BRANCH  19  20
ATOM     20  OG  SER A   1      11.436  13.047  -8.450  1.00  0.00    -0.394 OA
ATOM     21  H   UNL     1      11.447  13.936  -8.892  1.00  0.00     0.210 HD
ENDBRANCH  19  20
ENDBRANCH  15  19
ENDBRANCH  12  15
ENDBRANCH  10  11
BRANCH  10  22
ATOM     22  CB  PHE A   2      15.613   9.774  -4.887  1.00  0.00     0.070 C 
BRANCH  22  23
ATOM     23  CG  PHE A   2      14.442   9.291  -4.091  1.00  0.00    -0.045 A 
ATOM     24  CD1 PHE A   2      13.902  10.048  -3.033  1.00  0.00     0.004 A 
ATOM     25  CD2 PHE A   2      13.968   7.991  -4.310  1.00  0.00     0.004 A 
ATOM     26  CE1 PHE A   2      12.868   9.536  -2.260  1.00  0.00     0.000 A 
ATOM     27  CE2 PHE A   2      12.939   7.477  -3.521  1.00  0.00     0.000 A 
ATOM     28  CZ  PHE A   2      12.386   8.253  -2.502  1.00  0.00     0.000 A 
ENDBRANCH  22  23
ENDBRANCH  10  22
ENDBRANCH   7  10
ENDBRANCH   5   6
BRANCH   5  29
ATOM     29  CB  TYR A   3      20.183  12.259  -5.204  1.00  0.00     0.070 C 
BRANCH  29  30
ATOM     30  CG  TYR A   3      20.412  11.678  -3.824  1.00  0.00    -0.045 A 
ATOM     31  CD1 TYR A   3      21.520  10.852  -3.573  1.00  0.00     0.007 A 
ATOM     32  CD2 TYR A   3      19.507  11.947  -2.783  1.00  0.00     0.007 A 
ATOM     33  CE1 TYR A   3      21.701  10.279  -2.312  1.00  0.00     0.046 A 
ATOM     34  CE2 TYR A   3      19.700  11.385  -1.517  1.00  0.00     0.046 A 
ATOM     35  CZ  TYR A   3      20.794  10.547  -1.279  1.00  0.00     0.115 A 
BRANCH  35  36
ATOM     36  OH  TYR A   3      20.969   9.986  -0.016  1.00  0.00    -0.508 OA
ATOM     37  H   UNL     1      21.753   9.377   0.188  1.00  0.00     0.293 HD
ENDBRANCH  35  36
ENDBRANCH  29  30
ENDBRANCH   5  29
ENDBRANCH   1   5
BRANCH   3  38
ATOM     38  CA  ALA A   4      21.340   8.747  -8.150  1.00  0.00     0.168 C 
ATOM     39  CB  ALA A   4      20.663   8.005  -9.294  1.00  0.00     0.041 C 
BRANCH  38  40
ATOM     40  C   ALA A   4      22.708   9.198  -8.529  1.00  0.00     0.242 C 
ATOM     41  N   ARG A   5      23.817   8.706  -7.790  1.00  0.00    -0.343 N 
ATOM     42  O   ALA A   4      22.874  10.026  -9.467  1.00  0.00    -0.273 OA
ATOM     43  H   UNL     1      23.662   7.984  -7.048  1.00  0.00     0.164 HD
BRANCH  41  44
ATOM     44  CA  ARG A   5      25.180   9.116  -8.072  1.00  0.00     0.171 C 
BRANCH  44  45
ATOM     45  C   ARG A   5      25.901   7.967  -8.685  1.00  0.00     0.243 C 
ATOM     46  N   ASN A   6      25.916   7.866 -10.102  1.00  0.00    -0.341 N 
ATOM     47  O   ARG A   5      26.449   7.087  -7.970  1.00  0.00    -0.273 OA
ATOM     48  H   UNL     1      25.496   8.651 -10.651  1.00  0.00     0.164 HD
BRANCH  46  49
ATOM     49  CA  ASN A   6      26.543   6.751 -10.804  1.00  0.00     0.201 C 
BRANCH  49  50
ATOM     50  C   ASN A   6      27.994   6.642 -10.417  1.00  0.00     0.326 C 
ATOM     51  O   ASN A   6      28.795   7.579 -10.677  1.00  0.00    -0.250 OA
BRANCH  50  52
ATOM     52  OXT ASN A   6      28.453   5.497  -9.772  1.00  0.00    -0.480 OA
ATOM     53  H   UNL     1      29.426   5.407  -9.504  1.00  0.00     0.296 HD
ENDBRANCH  50  52
ENDBRANCH  49  50
BRANCH  49  54
ATOM     54  CB  ASN A   6      26.424   6.946 -12.323  1.00  0.00     0.136 C 
BRANCH  54  55
ATOM     55  CG  ASN A   6      25.009   7.181 -12.772  1.00  0.00     0.220 C 
ATOM     56  ND2 ASN A   6      24.753   8.089 -13.834  1.00  0.00    -0.370 N 
ATOM     57  OD1 ASN A   6      24.051   6.563 -12.238  1.00  0.00    -0.275 OA
ATOM     58  H   UNL     1      25.533   8.595 -14.309  1.00  0.00     0.159 HD
ATOM     59  H   UNL     1      23.775   8.258 -14.156  1.00  0.00     0.159 HD
ENDBRANCH  54  55
ENDBRANCH  49  54
ENDBRANCH  46  49
ENDBRANCH  44  45
BRANCH  44  60
ATOM     60  CB  ARG A   5      25.855   9.599  -6.792  1.00  0.00     0.037 C 
BRANCH  60  61
ATOM     61  CG  ARG A   5      25.164  10.858  -6.271  1.00  0.00     0.024 C 
BRANCH  61  62
ATOM     62  CD  ARG A   5      25.838  11.389  -5.014  1.00  0.00     0.116 C 
BRANCH  62  63
ATOM     63  NE  ARG A   5      25.374  10.688  -3.819  1.00  0.00    -0.357 N 
ATOM     64  CZ  ARG A   5      25.471  11.283  -2.526  1.00  0.00     0.185 C 
ATOM     65  NH2 ARG A   5      26.109  12.548  -2.353  1.00  0.00    -0.370 N 
ATOM     66  H   UNL     1      24.888   9.766  -3.910  1.00  0.00     0.163 HD
ATOM     67  H   UNL     1      26.695  12.985  -3.097  1.00  0.00     0.159 HD
ATOM     68  H   UNL     1      26.086  13.024  -1.424  1.00  0.00     0.159 HD
BRANCH  64  69
ATOM     69  NH1 ARG A   5      24.964  10.672  -1.503  1.00  0.00    -0.270 NA
ATOM     70  H   UNL     1      25.010  11.076  -0.541  1.00  0.00     0.191 HD
ENDBRANCH  64  69
ENDBRANCH  62  63
ENDBRANCH  61  62
ENDBRANCH  60  61
ENDBRANCH  44  60
ENDBRANCH  41  44
ENDBRANCH  38  40
ENDBRANCH   3  38
TORSDOF 27
