REMARK SMILES CC(C)C[C@H](NC(=O)[C@H](CC(N)=O)NC(=O)[C@@H](NC(=O)[C@@H](N)CO)C(C)C)C(=O)N[C@@H](CCCNC(=N)N)C(=O)N[C@@H](CC(N)=O)C(=O)O
REMARK SMILES IDX 7 1 8 2 6 3 9 5 14 6 15 7 16 8 17 10 18 11 19 12 20 13 21 15
REMARK SMILES IDX 22 16 23 19 24 20 25 22 26 23 27 24 10 25 11 26 12 27 13 28
REMARK SMILES IDX 5 31 28 32 30 33 29 34 31 36 39 37 41 38 40 39 42 41 47 42
REMARK SMILES IDX 48 43 49 44 43 46 44 47 45 48 46 49 32 52 33 53 34 54 35 55
REMARK SMILES IDX 36 56 38 57 37 61 4 63 2 64 1 65 3 66
REMARK H PARENT 6 4 14 9 18 14 22 17 22 18 24 21 12 29 12 30 30 35 41 40 49 45
REMARK H PARENT 45 50 45 51 35 58 38 59 38 60 37 62
ROOT
ATOM      1  C   ASN A   3      20.035  10.098  -6.454  1.00  0.00     0.243 C 
ATOM      2  O   ASN A   3      20.156   9.187  -5.589  1.00  0.00    -0.273 OA
ATOM      3  N   LEU A   4      20.556   9.925  -7.765  1.00  0.00    -0.342 N 
ATOM      4  H   UNL     1      20.391  10.664  -8.486  1.00  0.00     0.164 HD
ENDROOT
BRANCH   1   5
ATOM      5  CA  ASN A   3      19.347  11.383  -6.120  1.00  0.00     0.180 C 
BRANCH   5   6
ATOM      6  N   ASN A   3      18.101  11.096  -5.454  1.00  0.00    -0.342 N 
ATOM      7  C   VAL A   2      16.878  11.730  -5.758  1.00  0.00     0.243 C 
ATOM      8  O   VAL A   2      16.871  12.769  -6.477  1.00  0.00    -0.273 OA
ATOM      9  H   UNL     1      18.196  10.731  -4.487  1.00  0.00     0.164 HD
BRANCH   7  10
ATOM     10  CA  VAL A   2      15.638  11.239  -5.057  1.00  0.00     0.173 C 
BRANCH  10  11
ATOM     11  N   VAL A   2      14.454  11.728  -5.765  1.00  0.00    -0.343 N 
ATOM     12  C   SER A   1      13.925  13.043  -5.631  1.00  0.00     0.239 C 
ATOM     13  O   SER A   1      14.462  13.857  -4.830  1.00  0.00    -0.273 OA
ATOM     14  H   UNL     1      13.876  11.024  -6.271  1.00  0.00     0.164 HD
BRANCH  12  15
ATOM     15  CA  SER A   1      12.664  13.409  -6.381  1.00  0.00     0.167 C 
BRANCH  15  16
ATOM     16  N   SER A   1      12.474  14.862  -6.372  1.00  0.00    -0.318 NA
ATOM     17  H   UNL     1      11.585  15.087  -6.874  1.00  0.00     0.119 HD
ATOM     18  H   UNL     1      12.317  15.168  -5.384  1.00  0.00     0.119 HD
ENDBRANCH  15  16
BRANCH  15  19
ATOM     19  CB  SER A   1      12.698  12.904  -7.846  1.00  0.00     0.184 C 
BRANCH  19  20
ATOM     20  OG  SER A   1      11.439  13.042  -8.445  1.00  0.00    -0.394 OA
ATOM     21  H   UNL     1      10.861  12.332  -8.061  1.00  0.00     0.210 HD
ENDBRANCH  19  20
ENDBRANCH  15  19
ENDBRANCH  12  15
ENDBRANCH  10  11
BRANCH  10  22
ATOM     22  CB  VAL A   2      15.522   9.667  -4.965  1.00  0.00     0.015 C 
ATOM     23  CG1 VAL A   2      14.344   9.298  -4.061  1.00  0.00     0.010 C 
ATOM     24  CG2 VAL A   2      16.706   8.808  -4.472  1.00  0.00     0.010 C 
ENDBRANCH  10  22
ENDBRANCH   7  10
ENDBRANCH   5   6
BRANCH   5  25
ATOM     25  CB  ASN A   3      20.209  12.273  -5.215  1.00  0.00     0.134 C 
BRANCH  25  26
ATOM     26  CG  ASN A   3      20.458  11.698  -3.839  1.00  0.00     0.220 C 
ATOM     27  ND2 ASN A   3      19.622  12.057  -2.739  1.00  0.00    -0.370 N 
ATOM     28  OD1 ASN A   3      21.421  10.905  -3.656  1.00  0.00    -0.275 OA
ATOM     29  H   UNL     1      19.799  11.658  -1.790  1.00  0.00     0.159 HD
ATOM     30  H   UNL     1      18.820  12.713  -2.870  1.00  0.00     0.159 HD
ENDBRANCH  25  26
ENDBRANCH   5  25
ENDBRANCH   1   5
BRANCH   3  31
ATOM     31  CA  LEU A   4      21.343   8.763  -8.133  1.00  0.00     0.171 C 
BRANCH  31  32
ATOM     32  C   LEU A   4      22.710   9.218  -8.516  1.00  0.00     0.243 C 
ATOM     33  N   ARG A   5      23.820   8.720  -7.784  1.00  0.00    -0.343 N 
ATOM     34  O   LEU A   4      22.873  10.033  -9.465  1.00  0.00    -0.273 OA
ATOM     35  H   UNL     1      23.665   8.030  -7.014  1.00  0.00     0.164 HD
BRANCH  33  36
ATOM     36  CA  ARG A   5      25.184   9.122  -8.073  1.00  0.00     0.171 C 
BRANCH  36  37
ATOM     37  C   ARG A   5      25.899   7.968  -8.685  1.00  0.00     0.243 C 
ATOM     38  N   ASN A   6      25.913   7.864 -10.102  1.00  0.00    -0.341 N 
ATOM     39  O   ARG A   5      26.447   7.087  -7.969  1.00  0.00    -0.273 OA
ATOM     40  H   UNL     1      25.489   8.647 -10.651  1.00  0.00     0.164 HD
BRANCH  38  41
ATOM     41  CA  ASN A   6      26.542   6.751 -10.804  1.00  0.00     0.201 C 
BRANCH  41  42
ATOM     42  C   ASN A   6      27.992   6.642 -10.415  1.00  0.00     0.326 C 
ATOM     43  O   ASN A   6      28.794   7.579 -10.677  1.00  0.00    -0.250 OA
BRANCH  42  44
ATOM     44  OXT ASN A   6      28.451   5.499  -9.768  1.00  0.00    -0.480 OA
ATOM     45  H   UNL     1      29.423   5.409  -9.499  1.00  0.00     0.296 HD
ENDBRANCH  42  44
ENDBRANCH  41  42
BRANCH  41  46
ATOM     46  CB  ASN A   6      26.424   6.946 -12.323  1.00  0.00     0.136 C 
BRANCH  46  47
ATOM     47  CG  ASN A   6      25.010   7.180 -12.773  1.00  0.00     0.220 C 
ATOM     48  ND2 ASN A   6      24.753   8.090 -13.833  1.00  0.00    -0.370 N 
ATOM     49  OD1 ASN A   6      24.053   6.558 -12.243  1.00  0.00    -0.275 OA
ATOM     50  H   UNL     1      23.775   8.258 -14.156  1.00  0.00     0.159 HD
ATOM     51  H   UNL     1      25.533   8.600 -14.306  1.00  0.00     0.159 HD
ENDBRANCH  46  47
ENDBRANCH  41  46
ENDBRANCH  38  41
ENDBRANCH  36  37
BRANCH  36  52
ATOM     52  CB  ARG A   5      25.862   9.605  -6.796  1.00  0.00     0.037 C 
BRANCH  52  53
ATOM     53  CG  ARG A   5      25.166  10.861  -6.272  1.00  0.00     0.024 C 
BRANCH  53  54
ATOM     54  CD  ARG A   5      25.841  11.391  -5.015  1.00  0.00     0.116 C 
BRANCH  54  55
ATOM     55  NE  ARG A   5      25.377  10.685  -3.823  1.00  0.00    -0.357 N 
ATOM     56  CZ  ARG A   5      25.468  11.279  -2.527  1.00  0.00     0.185 C 
ATOM     57  NH2 ARG A   5      26.106  12.541  -2.350  1.00  0.00    -0.370 N 
ATOM     58  H   UNL     1      24.900   9.759  -3.922  1.00  0.00     0.163 HD
ATOM     59  H   UNL     1      26.084  13.006  -1.415  1.00  0.00     0.159 HD
ATOM     60  H   UNL     1      26.693  12.982  -3.090  1.00  0.00     0.159 HD
BRANCH  56  61
ATOM     61  NH1 ARG A   5      24.957  10.679  -1.500  1.00  0.00    -0.270 NA
ATOM     62  H   UNL     1      24.476   9.756  -1.584  1.00  0.00     0.191 HD
ENDBRANCH  56  61
ENDBRANCH  54  55
ENDBRANCH  53  54
ENDBRANCH  52  53
ENDBRANCH  36  52
ENDBRANCH  33  36
ENDBRANCH  31  32
BRANCH  31  63
ATOM     63  CB  LEU A   4      20.652   8.000  -9.267  1.00  0.00     0.038 C 
BRANCH  63  64
ATOM     64  CG  LEU A   4      21.447   6.773  -9.766  1.00  0.00    -0.015 C 
ATOM     65  CD1 LEU A   4      21.762   5.780  -8.638  1.00  0.00     0.007 C 
ATOM     66  CD2 LEU A   4      20.662   6.070 -10.876  1.00  0.00     0.007 C 
ENDBRANCH  63  64
ENDBRANCH  31  63
ENDBRANCH   3  31
TORSDOF 27
