REMARK SMILES CC[C@H](C)[C@H](NC(=O)[C@H](Cc1ccccc1)NC(=O)[C@@H](N)CO)C(=O)N[C@@H](CCC(N)=O)C(=O)N[C@@H](CCCNC(=N)N)C(=O)N[C@@H](CC(N)=O)C(=O)O
REMARK SMILES IDX 24 1 25 2 26 3 5 5 6 6 7 7 8 8 9 10 17 11 18 12 19 13 20 15
REMARK SMILES IDX 21 16 22 19 23 20 10 22 11 23 12 24 16 25 13 26 15 27 14 28
REMARK SMILES IDX 3 29 4 30 2 31 1 32 27 33 33 34 35 35 34 36 36 38 44 39
REMARK SMILES IDX 46 40 45 41 47 43 52 44 53 45 54 46 48 48 49 49 50 50 51 51
REMARK SMILES IDX 37 54 38 55 39 56 40 57 41 58 43 59 42 63 28 65 29 66 30 67
REMARK SMILES IDX 31 68 32 69
REMARK H PARENT 26 4 6 9 17 14 21 17 21 18 23 21 35 37 46 42 54 47 50 52 50 53
REMARK H PARENT 40 60 43 61 43 62 42 64 31 70 31 71
ROOT
ATOM      1  C   ILE A   3      20.034  10.082  -6.473  1.00  0.00     0.243 C 
ATOM      2  O   ILE A   3      20.147   9.161  -5.617  1.00  0.00    -0.273 OA
ATOM      3  N   GLN A   4      20.561   9.917  -7.779  1.00  0.00    -0.342 N 
ATOM      4  H   UNL     1      20.401  10.659  -8.499  1.00  0.00     0.164 HD
ENDROOT
BRANCH   1   5
ATOM      5  CA  ILE A   3      19.337  11.361  -6.140  1.00  0.00     0.174 C 
BRANCH   5   6
ATOM      6  N   ILE A   3      18.087  11.054  -5.493  1.00  0.00    -0.342 N 
ATOM      7  C   PHE A   2      16.882  11.747  -5.775  1.00  0.00     0.243 C 
ATOM      8  O   PHE A   2      16.893  12.784  -6.494  1.00  0.00    -0.273 OA
ATOM      9  H   UNL     1      18.165  10.526  -4.598  1.00  0.00     0.164 HD
BRANCH   7  10
ATOM     10  CA  PHE A   2      15.649  11.313  -5.059  1.00  0.00     0.175 C 
BRANCH  10  11
ATOM     11  N   PHE A   2      14.452  11.740  -5.769  1.00  0.00    -0.343 N 
ATOM     12  C   SER A   1      13.913  13.050  -5.637  1.00  0.00     0.239 C 
ATOM     13  O   SER A   1      14.442  13.870  -4.837  1.00  0.00    -0.273 OA
ATOM     14  H   UNL     1      13.866  11.000  -6.213  1.00  0.00     0.164 HD
BRANCH  12  15
ATOM     15  CA  SER A   1      12.660  13.412  -6.390  1.00  0.00     0.167 C 
BRANCH  15  16
ATOM     16  N   SER A   1      12.475  14.864  -6.376  1.00  0.00    -0.318 NA
ATOM     17  H   UNL     1      13.175  15.315  -7.009  1.00  0.00     0.119 HD
ATOM     18  H   UNL     1      11.521  15.091  -6.740  1.00  0.00     0.119 HD
ENDBRANCH  15  16
BRANCH  15  19
ATOM     19  CB  SER A   1      12.688  12.879  -7.844  1.00  0.00     0.184 C 
BRANCH  19  20
ATOM     20  OG  SER A   1      11.436  13.047  -8.450  1.00  0.00    -0.394 OA
ATOM     21  H   UNL     1      11.445  13.936  -8.892  1.00  0.00     0.210 HD
ENDBRANCH  19  20
ENDBRANCH  15  19
ENDBRANCH  12  15
ENDBRANCH  10  11
BRANCH  10  22
ATOM     22  CB  PHE A   2      15.613   9.774  -4.891  1.00  0.00     0.070 C 
BRANCH  22  23
ATOM     23  CG  PHE A   2      14.445   9.289  -4.089  1.00  0.00    -0.045 A 
ATOM     24  CD1 PHE A   2      13.904  10.046  -3.032  1.00  0.00     0.004 A 
ATOM     25  CD2 PHE A   2      13.969   7.989  -4.310  1.00  0.00     0.004 A 
ATOM     26  CE1 PHE A   2      12.869   9.535  -2.260  1.00  0.00     0.000 A 
ATOM     27  CE2 PHE A   2      12.940   7.477  -3.521  1.00  0.00     0.000 A 
ATOM     28  CZ  PHE A   2      12.386   8.252  -2.502  1.00  0.00     0.000 A 
ENDBRANCH  22  23
ENDBRANCH  10  22
ENDBRANCH   7  10
ENDBRANCH   5   6
BRANCH   5  29
ATOM     29  CB  ILE A   3      20.208  12.262  -5.240  1.00  0.00     0.018 C 
ATOM     30  CG1 ILE A   3      19.651  13.694  -5.175  1.00  0.00     0.010 C 
BRANCH  29  31
ATOM     31  CG2 ILE A   3      20.433  11.699  -3.809  1.00  0.00     0.002 C 
ATOM     32  CD1 ILE A   3      21.818  12.069  -3.293  1.00  0.00     0.004 C 
ENDBRANCH  29  31
ENDBRANCH   5  29
ENDBRANCH   1   5
BRANCH   3  33
ATOM     33  CA  GLN A   4      21.347   8.755  -8.146  1.00  0.00     0.171 C 
BRANCH  33  34
ATOM     34  C   GLN A   4      22.712   9.213  -8.523  1.00  0.00     0.243 C 
ATOM     35  N   ARG A   5      23.821   8.713  -7.790  1.00  0.00    -0.343 N 
ATOM     36  O   GLN A   4      22.877  10.034  -9.467  1.00  0.00    -0.273 OA
ATOM     37  H   UNL     1      23.666   7.994  -7.046  1.00  0.00     0.164 HD
BRANCH  35  38
ATOM     38  CA  ARG A   5      25.184   9.120  -8.072  1.00  0.00     0.171 C 
BRANCH  38  39
ATOM     39  C   ARG A   5      25.902   7.969  -8.686  1.00  0.00     0.243 C 
ATOM     40  N   ASN A   6      25.914   7.865 -10.102  1.00  0.00    -0.341 N 
ATOM     41  O   ARG A   5      26.450   7.088  -7.969  1.00  0.00    -0.273 OA
ATOM     42  H   UNL     1      25.488   8.647 -10.651  1.00  0.00     0.164 HD
BRANCH  40  43
ATOM     43  CA  ASN A   6      26.543   6.751 -10.804  1.00  0.00     0.201 C 
BRANCH  43  44
ATOM     44  C   ASN A   6      27.993   6.642 -10.416  1.00  0.00     0.326 C 
ATOM     45  O   ASN A   6      28.794   7.579 -10.677  1.00  0.00    -0.250 OA
BRANCH  44  46
ATOM     46  OXT ASN A   6      28.452   5.499  -9.769  1.00  0.00    -0.480 OA
ATOM     47  H   UNL     1      29.424   5.409  -9.500  1.00  0.00     0.296 HD
ENDBRANCH  44  46
ENDBRANCH  43  44
BRANCH  43  48
ATOM     48  CB  ASN A   6      26.425   6.947 -12.323  1.00  0.00     0.136 C 
BRANCH  48  49
ATOM     49  CG  ASN A   6      25.011   7.181 -12.773  1.00  0.00     0.220 C 
ATOM     50  ND2 ASN A   6      24.754   8.091 -13.833  1.00  0.00    -0.370 N 
ATOM     51  OD1 ASN A   6      24.054   6.558 -12.243  1.00  0.00    -0.275 OA
ATOM     52  H   UNL     1      23.775   8.258 -14.157  1.00  0.00     0.159 HD
ATOM     53  H   UNL     1      25.533   8.600 -14.306  1.00  0.00     0.159 HD
ENDBRANCH  48  49
ENDBRANCH  43  48
ENDBRANCH  40  43
ENDBRANCH  38  39
BRANCH  38  54
ATOM     54  CB  ARG A   5      25.858   9.602  -6.793  1.00  0.00     0.037 C 
BRANCH  54  55
ATOM     55  CG  ARG A   5      25.163  10.858  -6.269  1.00  0.00     0.024 C 
BRANCH  55  56
ATOM     56  CD  ARG A   5      25.838  11.391  -5.014  1.00  0.00     0.116 C 
BRANCH  56  57
ATOM     57  NE  ARG A   5      25.378  10.686  -3.820  1.00  0.00    -0.357 N 
ATOM     58  CZ  ARG A   5      25.469  11.281  -2.526  1.00  0.00     0.185 C 
ATOM     59  NH2 ARG A   5      26.107  12.546  -2.352  1.00  0.00    -0.370 N 
ATOM     60  H   UNL     1      24.896   9.762  -3.911  1.00  0.00     0.163 HD
ATOM     61  H   UNL     1      26.697  12.982  -3.093  1.00  0.00     0.159 HD
ATOM     62  H   UNL     1      26.080  13.024  -1.424  1.00  0.00     0.159 HD
BRANCH  58  63
ATOM     63  NH1 ARG A   5      24.954  10.672  -1.507  1.00  0.00    -0.270 NA
ATOM     64  H   UNL     1      24.995  11.077  -0.545  1.00  0.00     0.191 HD
ENDBRANCH  58  63
ENDBRANCH  56  57
ENDBRANCH  55  56
ENDBRANCH  54  55
ENDBRANCH  38  54
ENDBRANCH  35  38
ENDBRANCH  33  34
BRANCH  33  65
ATOM     65  CB  GLN A   4      20.656   7.994  -9.282  1.00  0.00     0.045 C 
BRANCH  65  66
ATOM     66  CG  GLN A   4      21.451   6.768  -9.761  1.00  0.00     0.102 C 
BRANCH  66  67
ATOM     67  CD  GLN A   4      21.757   5.807  -8.646  1.00  0.00     0.217 C 
ATOM     68  NE2 GLN A   4      23.106   5.441  -8.353  1.00  0.00    -0.370 N 
ATOM     69  OE1 GLN A   4      20.816   5.301  -7.979  1.00  0.00    -0.275 OA
ATOM     70  H   UNL     1      23.898   5.818  -8.918  1.00  0.00     0.159 HD
ATOM     71  H   UNL     1      23.314   4.781  -7.571  1.00  0.00     0.159 HD
ENDBRANCH  66  67
ENDBRANCH  65  66
ENDBRANCH  33  65
ENDBRANCH   3  33
TORSDOF 29
