REMARK SMILES CC(C)C[C@H](NC(=O)CNC(=O)[C@H](Cc1ccccc1)NC(=O)[C@@H](N)CO)C(=O)N[C@@H](CCCNC(=N)N)C(=O)N[C@@H](CCC(N)=O)C(=O)O
REMARK SMILES IDX 7 1 8 2 6 3 9 5 10 6 11 7 12 8 13 10 21 11 22 12 23 13 24 15
REMARK SMILES IDX 25 16 26 19 27 20 14 22 15 23 16 24 20 25 17 26 19 27 18 28
REMARK SMILES IDX 5 29 28 30 30 31 29 32 31 34 39 35 41 36 40 37 42 39 48 40
REMARK SMILES IDX 49 41 50 42 43 44 44 45 45 46 46 47 47 48 32 51 33 52 34 53
REMARK SMILES IDX 35 54 36 55 38 56 37 60 4 62 2 63 1 64 3 65
REMARK H PARENT 6 4 10 9 21 14 25 17 25 18 27 21 30 33 41 38 50 43 46 49 46 50
REMARK H PARENT 35 57 38 58 38 59 37 61
ROOT
ATOM      1  C   GLY A   3      20.042  10.101  -6.467  1.00  0.00     0.240 C 
ATOM      2  O   GLY A   3      20.173   9.205  -5.587  1.00  0.00    -0.273 OA
ATOM      3  N   LEU A   4      20.558   9.918  -7.776  1.00  0.00    -0.343 N 
ATOM      4  H   UNL     1      20.388  10.650  -8.503  1.00  0.00     0.164 HD
ENDROOT
BRANCH   1   5
ATOM      5  CA  GLY A   3      19.352  11.377  -6.153  1.00  0.00     0.216 C 
BRANCH   5   6
ATOM      6  N   GLY A   3      18.113  11.084  -5.478  1.00  0.00    -0.345 N 
ATOM      7  C   PHE A   2      16.897  11.757  -5.771  1.00  0.00     0.243 C 
ATOM      8  O   PHE A   2      16.902  12.791  -6.493  1.00  0.00    -0.273 OA
ATOM      9  H   UNL     1      18.215  10.611  -4.553  1.00  0.00     0.164 HD
BRANCH   7  10
ATOM     10  CA  PHE A   2      15.660  11.315  -5.060  1.00  0.00     0.175 C 
BRANCH  10  11
ATOM     11  N   PHE A   2      14.461  11.740  -5.769  1.00  0.00    -0.343 N 
ATOM     12  C   SER A   1      13.920  13.049  -5.633  1.00  0.00     0.239 C 
ATOM     13  O   SER A   1      14.449  13.867  -4.832  1.00  0.00    -0.273 OA
ATOM     14  H   UNL     1      13.874  11.000  -6.213  1.00  0.00     0.164 HD
BRANCH  12  15
ATOM     15  CA  SER A   1      12.663  13.409  -6.386  1.00  0.00     0.167 C 
BRANCH  15  16
ATOM     16  N   SER A   1      12.455  14.859  -6.398  1.00  0.00    -0.318 NA
ATOM     17  H   UNL     1      13.315  15.336  -6.756  1.00  0.00     0.119 HD
ATOM     18  H   UNL     1      12.286  15.189  -5.420  1.00  0.00     0.119 HD
ENDBRANCH  15  16
BRANCH  15  19
ATOM     19  CB  SER A   1      12.690  12.885  -7.839  1.00  0.00     0.184 C 
BRANCH  19  20
ATOM     20  OG  SER A   1      11.438  13.053  -8.445  1.00  0.00    -0.394 OA
ATOM     21  H   UNL     1      10.838  12.362  -8.059  1.00  0.00     0.210 HD
ENDBRANCH  19  20
ENDBRANCH  15  19
ENDBRANCH  12  15
ENDBRANCH  10  11
BRANCH  10  22
ATOM     22  CB  PHE A   2      15.628   9.778  -4.890  1.00  0.00     0.070 C 
BRANCH  22  23
ATOM     23  CG  PHE A   2      14.456   9.289  -4.088  1.00  0.00    -0.045 A 
ATOM     24  CD1 PHE A   2      13.910  10.047  -3.033  1.00  0.00     0.004 A 
ATOM     25  CD2 PHE A   2      13.977   7.991  -4.310  1.00  0.00     0.004 A 
ATOM     26  CE1 PHE A   2      12.872   9.537  -2.263  1.00  0.00     0.000 A 
ATOM     27  CE2 PHE A   2      12.944   7.479  -3.524  1.00  0.00     0.000 A 
ATOM     28  CZ  PHE A   2      12.389   8.254  -2.506  1.00  0.00     0.000 A 
ENDBRANCH  22  23
ENDBRANCH  10  22
ENDBRANCH   7  10
ENDBRANCH   5   6
ENDBRANCH   1   5
BRANCH   3  29
ATOM     29  CA  LEU A   4      21.346   8.758  -8.138  1.00  0.00     0.171 C 
BRANCH  29  30
ATOM     30  C   LEU A   4      22.712   9.216  -8.517  1.00  0.00     0.243 C 
ATOM     31  N   ARG A   5      23.821   8.719  -7.783  1.00  0.00    -0.343 N 
ATOM     32  O   LEU A   4      22.875  10.036  -9.462  1.00  0.00    -0.273 OA
ATOM     33  H   UNL     1      23.666   8.026  -7.015  1.00  0.00     0.164 HD
BRANCH  31  34
ATOM     34  CA  ARG A   5      25.185   9.121  -8.071  1.00  0.00     0.171 C 
BRANCH  34  35
ATOM     35  C   ARG A   5      25.899   7.967  -8.685  1.00  0.00     0.243 C 
ATOM     36  N   GLN A   6      25.914   7.871 -10.102  1.00  0.00    -0.341 N 
ATOM     37  O   ARG A   5      26.446   7.084  -7.971  1.00  0.00    -0.273 OA
ATOM     38  H   UNL     1      25.518   8.672 -10.642  1.00  0.00     0.164 HD
BRANCH  36  39
ATOM     39  CA  GLN A   6      26.538   6.763 -10.813  1.00  0.00     0.192 C 
BRANCH  39  40
ATOM     40  C   GLN A   6      27.988   6.644 -10.422  1.00  0.00     0.326 C 
ATOM     41  O   GLN A   6      28.794   7.578 -10.677  1.00  0.00    -0.250 OA
BRANCH  40  42
ATOM     42  OXT GLN A   6      28.438   5.496  -9.778  1.00  0.00    -0.480 OA
ATOM     43  H   UNL     1      29.410   5.400  -9.507  1.00  0.00     0.296 HD
ENDBRANCH  40  42
ENDBRANCH  39  40
BRANCH  39  44
ATOM     44  CB  GLN A   6      26.422   6.975 -12.334  1.00  0.00     0.047 C 
BRANCH  44  45
ATOM     45  CG  GLN A   6      24.965   7.148 -12.816  1.00  0.00     0.102 C 
BRANCH  45  46
ATOM     46  CD  GLN A   6      24.629   8.572 -13.165  1.00  0.00     0.217 C 
ATOM     47  NE2 GLN A   6      23.505   9.221 -12.570  1.00  0.00    -0.370 N 
ATOM     48  OE1 GLN A   6      25.320   9.189 -14.019  1.00  0.00    -0.275 OA
ATOM     49  H   UNL     1      22.881   8.713 -11.907  1.00  0.00     0.159 HD
ATOM     50  H   UNL     1      23.282  10.213 -12.810  1.00  0.00     0.159 HD
ENDBRANCH  45  46
ENDBRANCH  44  45
ENDBRANCH  39  44
ENDBRANCH  36  39
ENDBRANCH  34  35
BRANCH  34  51
ATOM     51  CB  ARG A   5      25.863   9.603  -6.794  1.00  0.00     0.037 C 
BRANCH  51  52
ATOM     52  CG  ARG A   5      25.167  10.859  -6.269  1.00  0.00     0.024 C 
BRANCH  52  53
ATOM     53  CD  ARG A   5      25.843  11.390  -5.013  1.00  0.00     0.116 C 
BRANCH  53  54
ATOM     54  NE  ARG A   5      25.378  10.687  -3.820  1.00  0.00    -0.357 N 
ATOM     55  CZ  ARG A   5      25.470  11.282  -2.526  1.00  0.00     0.185 C 
ATOM     56  NH2 ARG A   5      26.109  12.546  -2.351  1.00  0.00    -0.370 N 
ATOM     57  H   UNL     1      24.900   9.761  -3.912  1.00  0.00     0.163 HD
ATOM     58  H   UNL     1      26.700  12.981  -3.092  1.00  0.00     0.159 HD
ATOM     59  H   UNL     1      26.083  13.023  -1.422  1.00  0.00     0.159 HD
BRANCH  55  60
ATOM     60  NH1 ARG A   5      24.956  10.671  -1.506  1.00  0.00    -0.270 NA
ATOM     61  H   UNL     1      24.999  11.075  -0.544  1.00  0.00     0.191 HD
ENDBRANCH  55  60
ENDBRANCH  53  54
ENDBRANCH  52  53
ENDBRANCH  51  52
ENDBRANCH  34  51
ENDBRANCH  31  34
ENDBRANCH  29  30
BRANCH  29  62
ATOM     62  CB  LEU A   4      20.658   7.997  -9.273  1.00  0.00     0.038 C 
BRANCH  62  63
ATOM     63  CG  LEU A   4      21.451   6.767  -9.767  1.00  0.00    -0.015 C 
ATOM     64  CD1 LEU A   4      21.758   5.775  -8.636  1.00  0.00     0.007 C 
ATOM     65  CD2 LEU A   4      20.666   6.066 -10.878  1.00  0.00     0.007 C 
ENDBRANCH  62  63
ENDBRANCH  29  62
ENDBRANCH   3  29
TORSDOF 27
