REMARK SMILES C[C@H](NC(=O)[C@H](CC(=O)O)NC(=O)[C@H](Cc1ccccc1)NC(=O)[C@@H](N)CO)C(=O)N[C@@H](CCCNC(=N)N)C(=O)N[C@@H](CC(N)=O)C(=O)O
REMARK SMILES IDX 4 1 5 2 3 3 6 5 11 6 12 7 13 8 14 10 22 11 23 12 24 13 25 15
REMARK SMILES IDX 26 16 27 19 28 20 15 22 16 23 17 24 21 25 18 26 20 27 19 28
REMARK SMILES IDX 7 29 8 30 9 31 10 32 2 34 1 35 29 36 31 37 30 38 32 40 40 41
REMARK SMILES IDX 42 42 41 43 43 45 48 46 49 47 50 48 44 50 45 51 46 52 47 53
REMARK SMILES IDX 33 56 34 57 35 58 36 59 37 60 39 61 38 65
REMARK H PARENT 3 4 11 9 22 14 26 17 26 18 28 21 10 33 31 39 42 44 50 49 46 54
REMARK H PARENT 46 55 36 62 39 63 39 64 38 66
ROOT
ATOM      1  C   ASP A   3       1.386  -0.353   0.279  1.00  0.00     0.243 C 
ATOM      2  O   ASP A   3       1.467   0.888   0.059  1.00  0.00    -0.273 OA
ATOM      3  N   ALA A   4       0.378  -1.137  -0.373  1.00  0.00    -0.343 N 
ATOM      4  H   UNL     1       0.415  -2.178  -0.265  1.00  0.00     0.164 HD
ENDROOT
BRANCH   1   5
ATOM      5  CA  ASP A   3       2.303  -1.001   1.282  1.00  0.00     0.182 C 
BRANCH   5   6
ATOM      6  N   ASP A   3       3.592  -0.302   1.336  1.00  0.00    -0.342 N 
ATOM      7  C   PHE A   2       4.748  -0.762   0.619  1.00  0.00     0.243 C 
ATOM      8  O   PHE A   2       4.693  -1.836  -0.040  1.00  0.00    -0.273 OA
ATOM      9  H   UNL     1       3.634   0.637   1.796  1.00  0.00     0.164 HD
BRANCH   7  10
ATOM     10  CA  PHE A   2       6.009   0.071   0.613  1.00  0.00     0.175 C 
BRANCH  10  11
ATOM     11  N   PHE A   2       7.216  -0.763   0.475  1.00  0.00    -0.343 N 
ATOM     12  C   SER A   1       7.561  -1.527  -0.698  1.00  0.00     0.239 C 
ATOM     13  O   SER A   1       6.847  -1.447  -1.735  1.00  0.00    -0.273 OA
ATOM     14  H   UNL     1       7.875  -0.766   1.285  1.00  0.00     0.164 HD
BRANCH  12  15
ATOM     15  CA  SER A   1       8.829  -2.355  -0.737  1.00  0.00     0.167 C 
BRANCH  15  16
ATOM     16  N   SER A   1       9.230  -2.767   0.610  1.00  0.00    -0.318 NA
ATOM     17  H   UNL     1       8.510  -3.414   1.006  1.00  0.00     0.119 HD
ATOM     18  H   UNL     1      10.132  -3.293   0.556  1.00  0.00     0.119 HD
ENDBRANCH  15  16
BRANCH  15  19
ATOM     19  CB  SER A   1       8.697  -3.582  -1.665  1.00  0.00     0.184 C 
BRANCH  19  20
ATOM     20  OG  SER A   1       7.732  -4.483  -1.187  1.00  0.00    -0.394 OA
ATOM     21  H   UNL     1       6.852  -4.148  -1.500  1.00  0.00     0.210 HD
ENDBRANCH  19  20
ENDBRANCH  15  19
ENDBRANCH  12  15
ENDBRANCH  10  11
BRANCH  10  22
ATOM     22  CB  PHE A   2       5.934   1.185  -0.450  1.00  0.00     0.070 C 
BRANCH  22  23
ATOM     23  CG  PHE A   2       7.200   2.004  -0.484  1.00  0.00    -0.045 A 
ATOM     24  CD1 PHE A   2       7.451   2.960   0.513  1.00  0.00     0.004 A 
ATOM     25  CD2 PHE A   2       8.157   1.794  -1.490  1.00  0.00     0.004 A 
ATOM     26  CE1 PHE A   2       8.636   3.702   0.496  1.00  0.00     0.000 A 
ATOM     27  CE2 PHE A   2       9.340   2.536  -1.503  1.00  0.00     0.000 A 
ATOM     28  CZ  PHE A   2       9.581   3.488  -0.510  1.00  0.00     0.000 A 
ENDBRANCH  22  23
ENDBRANCH  10  22
ENDBRANCH   7  10
ENDBRANCH   5   6
BRANCH   5  29
ATOM     29  CB  ASP A   3       1.652  -1.070   2.677  1.00  0.00     0.157 C 
BRANCH  29  30
ATOM     30  CG  ASP A   3       1.345   0.280   3.257  1.00  0.00     0.305 C 
ATOM     31  OD1 ASP A   3       2.075   0.756   4.172  1.00  0.00    -0.252 OA
BRANCH  30  32
ATOM     32  OD2 ASP A   3       0.257   1.011   2.781  1.00  0.00    -0.481 OA
ATOM     33  H   UNL     1       0.040   1.925   3.160  1.00  0.00     0.296 HD
ENDBRANCH  30  32
ENDBRANCH  29  30
ENDBRANCH   5  29
ENDBRANCH   1   5
BRANCH   3  34
ATOM     34  CA  ALA A   4      -0.850  -0.539  -0.904  1.00  0.00     0.168 C 
ATOM     35  CB  ALA A   4      -1.295  -1.293  -2.156  1.00  0.00     0.041 C 
BRANCH  34  36
ATOM     36  C   ALA A   4      -1.939  -0.580   0.136  1.00  0.00     0.242 C 
ATOM     37  N   ARG A   5      -2.966   0.427   0.141  1.00  0.00    -0.343 N 
ATOM     38  O   ALA A   4      -1.974  -1.530   0.971  1.00  0.00    -0.273 OA
ATOM     39  H   UNL     1      -2.911   1.181  -0.580  1.00  0.00     0.164 HD
BRANCH  37  40
ATOM     40  CA  ARG A   5      -4.185   0.297   0.949  1.00  0.00     0.171 C 
BRANCH  40  41
ATOM     41  C   ARG A   5      -5.249  -0.472   0.204  1.00  0.00     0.243 C 
ATOM     42  N   ASN A   6      -6.348  -1.057   0.920  1.00  0.00    -0.341 N 
ATOM     43  O   ARG A   5      -5.186  -0.579  -1.054  1.00  0.00    -0.273 OA
ATOM     44  H   UNL     1      -6.379  -0.944   1.960  1.00  0.00     0.164 HD
BRANCH  42  45
ATOM     45  CA  ASN A   6      -7.481  -1.686   0.233  1.00  0.00     0.201 C 
BRANCH  45  46
ATOM     46  C   ASN A   6      -8.423  -0.629  -0.272  1.00  0.00     0.326 C 
ATOM     47  O   ASN A   6      -8.836   0.279   0.501  1.00  0.00    -0.250 OA
BRANCH  46  48
ATOM     48  OXT ASN A   6      -8.876  -0.684  -1.586  1.00  0.00    -0.480 OA
ATOM     49  H   UNL     1      -9.555  -0.015  -1.929  1.00  0.00     0.296 HD
ENDBRANCH  46  48
ENDBRANCH  45  46
BRANCH  45  50
ATOM     50  CB  ASN A   6      -8.207  -2.663   1.176  1.00  0.00     0.136 C 
BRANCH  50  51
ATOM     51  CG  ASN A   6      -9.305  -3.405   0.464  1.00  0.00     0.220 C 
ATOM     52  ND2 ASN A   6      -8.991  -4.420  -0.489  1.00  0.00    -0.370 N 
ATOM     53  OD1 ASN A   6     -10.510  -3.106   0.682  1.00  0.00    -0.275 OA
ATOM     54  H   UNL     1      -7.995  -4.701  -0.659  1.00  0.00     0.159 HD
ATOM     55  H   UNL     1      -9.745  -4.882  -1.041  1.00  0.00     0.159 HD
ENDBRANCH  50  51
ENDBRANCH  45  50
ENDBRANCH  42  45
ENDBRANCH  40  41
BRANCH  40  56
ATOM     56  CB  ARG A   5      -4.672   1.678   1.457  1.00  0.00     0.037 C 
BRANCH  56  57
ATOM     57  CG  ARG A   5      -5.646   2.452   0.543  1.00  0.00     0.024 C 
BRANCH  57  58
ATOM     58  CD  ARG A   5      -5.025   2.919  -0.778  1.00  0.00     0.116 C 
BRANCH  58  59
ATOM     59  NE  ARG A   5      -5.881   3.916  -1.420  1.00  0.00    -0.357 N 
ATOM     60  CZ  ARG A   5      -7.139   3.595  -2.033  1.00  0.00     0.185 C 
ATOM     61  NH2 ARG A   5      -7.959   4.646  -2.552  1.00  0.00    -0.370 N 
ATOM     62  H   UNL     1      -5.551   4.906  -1.445  1.00  0.00     0.163 HD
ATOM     63  H   UNL     1      -7.659   5.641  -2.463  1.00  0.00     0.159 HD
ATOM     64  H   UNL     1      -8.870   4.436  -3.017  1.00  0.00     0.159 HD
BRANCH  60  65
ATOM     65  NH1 ARG A   5      -7.528   2.363  -2.123  1.00  0.00    -0.270 NA
ATOM     66  H   UNL     1      -8.437   2.105  -2.569  1.00  0.00     0.191 HD
ENDBRANCH  60  65
ENDBRANCH  58  59
ENDBRANCH  57  58
ENDBRANCH  56  57
ENDBRANCH  40  56
ENDBRANCH  37  40
ENDBRANCH  34  36
ENDBRANCH   3  34
TORSDOF 27
