REMARK SMILES CC(C)C[C@H](NC(=O)[C@H](CCCNC(=N)N)NC(=O)[C@H](Cc1ccccc1)NC(=O)[C@@H](N)CO)C(=O)N[C@@H](CCCNC(=N)N)C(=O)N[C@@H](CO)C(=O)O
REMARK SMILES IDX 7 1 8 2 6 3 9 5 17 6 18 7 19 8 20 10 28 11 29 12 30 13 31 15
REMARK SMILES IDX 32 16 33 19 34 20 21 22 22 23 23 24 27 25 24 26 26 27 25 28
REMARK SMILES IDX 10 29 11 30 12 31 13 32 14 33 16 34 15 38 5 40 35 41 37 42
REMARK SMILES IDX 36 43 38 45 46 46 48 47 47 48 49 50 52 51 53 52 54 53 50 55
REMARK SMILES IDX 51 56 39 58 40 59 41 60 42 61 43 62 45 63 44 67 4 69 2 70
REMARK SMILES IDX 1 71 3 72
REMARK H PARENT 6 4 17 9 28 14 32 17 32 18 34 21 13 35 16 36 16 37 15 39 37 44
REMARK H PARENT 48 49 54 54 51 57 42 64 45 65 45 66 44 68
ROOT
ATOM      1  C   ARG A   3      20.035  10.082  -6.472  1.00  0.00     0.243 C 
ATOM      2  O   ARG A   3      20.147   9.160  -5.617  1.00  0.00    -0.273 OA
ATOM      3  N   LEU A   4      20.565   9.921  -7.777  1.00  0.00    -0.343 N 
ATOM      4  H   UNL     1      20.406  10.665  -8.496  1.00  0.00     0.164 HD
ENDROOT
BRANCH   1   5
ATOM      5  CA  ARG A   3      19.335  11.357  -6.139  1.00  0.00     0.171 C 
BRANCH   5   6
ATOM      6  N   ARG A   3      18.086  11.050  -5.495  1.00  0.00    -0.343 N 
ATOM      7  C   PHE A   2      16.884  11.750  -5.772  1.00  0.00     0.243 C 
ATOM      8  O   PHE A   2      16.900  12.792  -6.483  1.00  0.00    -0.273 OA
ATOM      9  H   UNL     1      18.163  10.517  -4.603  1.00  0.00     0.164 HD
BRANCH   7  10
ATOM     10  CA  PHE A   2      15.648  11.313  -5.059  1.00  0.00     0.175 C 
BRANCH  10  11
ATOM     11  N   PHE A   2      14.451  11.740  -5.769  1.00  0.00    -0.343 N 
ATOM     12  C   SER A   1      13.914  13.051  -5.637  1.00  0.00     0.239 C 
ATOM     13  O   SER A   1      14.449  13.870  -4.839  1.00  0.00    -0.273 OA
ATOM     14  H   UNL     1      13.858  11.001  -6.206  1.00  0.00     0.164 HD
BRANCH  12  15
ATOM     15  CA  SER A   1      12.654  13.411  -6.383  1.00  0.00     0.167 C 
BRANCH  15  16
ATOM     16  N   SER A   1      12.467  14.863  -6.382  1.00  0.00    -0.318 NA
ATOM     17  H   UNL     1      11.581  15.088  -6.891  1.00  0.00     0.119 HD
ATOM     18  H   UNL     1      12.304  15.175  -5.397  1.00  0.00     0.119 HD
ENDBRANCH  15  16
BRANCH  15  19
ATOM     19  CB  SER A   1      12.694  12.894  -7.842  1.00  0.00     0.184 C 
BRANCH  19  20
ATOM     20  OG  SER A   1      11.440  13.037  -8.449  1.00  0.00    -0.394 OA
ATOM     21  H   UNL     1      10.855  12.332  -8.065  1.00  0.00     0.210 HD
ENDBRANCH  19  20
ENDBRANCH  15  19
ENDBRANCH  12  15
ENDBRANCH  10  11
BRANCH  10  22
ATOM     22  CB  PHE A   2      15.611   9.774  -4.892  1.00  0.00     0.070 C 
BRANCH  22  23
ATOM     23  CG  PHE A   2      14.444   9.289  -4.090  1.00  0.00    -0.045 A 
ATOM     24  CD1 PHE A   2      13.903  10.046  -3.032  1.00  0.00     0.004 A 
ATOM     25  CD2 PHE A   2      13.968   7.989  -4.310  1.00  0.00     0.004 A 
ATOM     26  CE1 PHE A   2      12.869   9.535  -2.260  1.00  0.00     0.000 A 
ATOM     27  CE2 PHE A   2      12.939   7.477  -3.521  1.00  0.00     0.000 A 
ATOM     28  CZ  PHE A   2      12.386   8.252  -2.502  1.00  0.00     0.000 A 
ENDBRANCH  22  23
ENDBRANCH  10  22
ENDBRANCH   7  10
ENDBRANCH   5   6
BRANCH   5  29
ATOM     29  CB  ARG A   3      20.189  12.251  -5.238  1.00  0.00     0.037 C 
BRANCH  29  30
ATOM     30  CG  ARG A   3      20.432  11.699  -3.814  1.00  0.00     0.024 C 
BRANCH  30  31
ATOM     31  CD  ARG A   3      21.818  12.081  -3.293  1.00  0.00     0.116 C 
BRANCH  31  32
ATOM     32  NE  ARG A   3      21.893  13.516  -3.004  1.00  0.00    -0.357 N 
ATOM     33  CZ  ARG A   3      22.328  14.541  -3.918  1.00  0.00     0.185 C 
ATOM     34  NH2 ARG A   3      22.017  15.905  -3.631  1.00  0.00    -0.370 N 
ATOM     35  H   UNL     1      21.441  13.831  -2.116  1.00  0.00     0.163 HD
ATOM     36  H   UNL     1      21.466  16.157  -2.781  1.00  0.00     0.159 HD
ATOM     37  H   UNL     1      22.333  16.667  -4.271  1.00  0.00     0.159 HD
BRANCH  33  38
ATOM     38  NH1 ARG A   3      23.022  14.270  -4.980  1.00  0.00    -0.270 NA
ATOM     39  H   UNL     1      23.316  13.313  -5.264  1.00  0.00     0.191 HD
ENDBRANCH  33  38
ENDBRANCH  31  32
ENDBRANCH  30  31
ENDBRANCH  29  30
ENDBRANCH   5  29
ENDBRANCH   1   5
BRANCH   3  40
ATOM     40  CA  LEU A   4      21.349   8.760  -8.143  1.00  0.00     0.171 C 
BRANCH  40  41
ATOM     41  C   LEU A   4      22.714   9.216  -8.523  1.00  0.00     0.243 C 
ATOM     42  N   ARG A   5      23.823   8.721  -7.788  1.00  0.00    -0.343 N 
ATOM     43  O   LEU A   4      22.877  10.034  -9.469  1.00  0.00    -0.273 OA
ATOM     44  H   UNL     1      23.668   8.032  -7.017  1.00  0.00     0.164 HD
BRANCH  42  45
ATOM     45  CA  ARG A   5      25.186   9.120  -8.078  1.00  0.00     0.171 C 
BRANCH  45  46
ATOM     46  C   ARG A   5      25.898   7.964  -8.692  1.00  0.00     0.243 C 
ATOM     47  N   SER A   6      25.881   7.840 -10.110  1.00  0.00    -0.339 N 
ATOM     48  O   ARG A   5      26.457   7.091  -7.975  1.00  0.00    -0.273 OA
ATOM     49  H   UNL     1      25.339   8.548 -10.657  1.00  0.00     0.164 HD
BRANCH  47  50
ATOM     50  CA  SER A   6      26.547   6.751 -10.817  1.00  0.00     0.218 C 
BRANCH  50  51
ATOM     51  C   SER A   6      27.996   6.651 -10.418  1.00  0.00     0.328 C 
ATOM     52  O   SER A   6      28.796   7.590 -10.673  1.00  0.00    -0.250 OA
BRANCH  51  53
ATOM     53  OXT SER A   6      28.454   5.511  -9.766  1.00  0.00    -0.480 OA
ATOM     54  H   UNL     1      29.425   5.425  -9.489  1.00  0.00     0.296 HD
ENDBRANCH  51  53
ENDBRANCH  50  51
BRANCH  50  55
ATOM     55  CB  SER A   6      26.407   6.947 -12.334  1.00  0.00     0.193 C 
BRANCH  55  56
ATOM     56  OG  SER A   6      26.915   8.192 -12.740  1.00  0.00    -0.394 OA
ATOM     57  H   UNL     1      27.815   8.030 -13.125  1.00  0.00     0.210 HD
ENDBRANCH  55  56
ENDBRANCH  50  55
ENDBRANCH  47  50
ENDBRANCH  45  46
BRANCH  45  58
ATOM     58  CB  ARG A   5      25.864   9.604  -6.801  1.00  0.00     0.037 C 
BRANCH  58  59
ATOM     59  CG  ARG A   5      25.170  10.860  -6.273  1.00  0.00     0.024 C 
BRANCH  59  60
ATOM     60  CD  ARG A   5      25.849  11.385  -5.015  1.00  0.00     0.116 C 
BRANCH  60  61
ATOM     61  NE  ARG A   5      25.376  10.686  -3.824  1.00  0.00    -0.357 N 
ATOM     62  CZ  ARG A   5      25.466  11.280  -2.528  1.00  0.00     0.185 C 
ATOM     63  NH2 ARG A   5      26.104  12.543  -2.350  1.00  0.00    -0.370 N 
ATOM     64  H   UNL     1      24.894   9.763  -3.922  1.00  0.00     0.163 HD
ATOM     65  H   UNL     1      26.075  13.011  -1.417  1.00  0.00     0.159 HD
ATOM     66  H   UNL     1      26.694  12.982  -3.088  1.00  0.00     0.159 HD
BRANCH  62  67
ATOM     67  NH1 ARG A   5      24.955  10.681  -1.500  1.00  0.00    -0.270 NA
ATOM     68  H   UNL     1      24.473   9.758  -1.585  1.00  0.00     0.191 HD
ENDBRANCH  62  67
ENDBRANCH  60  61
ENDBRANCH  59  60
ENDBRANCH  58  59
ENDBRANCH  45  58
ENDBRANCH  42  45
ENDBRANCH  40  41
BRANCH  40  69
ATOM     69  CB  LEU A   4      20.657   7.999  -9.275  1.00  0.00     0.038 C 
BRANCH  69  70
ATOM     70  CG  LEU A   4      21.450   6.770  -9.771  1.00  0.00    -0.015 C 
ATOM     71  CD1 LEU A   4      21.763   5.779  -8.640  1.00  0.00     0.007 C 
ATOM     72  CD2 LEU A   4      20.659   6.065 -10.877  1.00  0.00     0.007 C 
ENDBRANCH  69  70
ENDBRANCH  40  69
ENDBRANCH   3  40
TORSDOF 31
