REMARK SMILES CC(C)C[C@H](NC(=O)[C@H](Cc1ccccc1)NC(=O)CN)C(=O)NCC(=O)N[C@@H](CCCNC(=N)N)C(=O)N[C@@H](CC(N)=O)C(=O)O
REMARK SMILES IDX 25 1 24 2 22 3 23 4 5 6 6 7 7 8 8 9 9 11 17 12 18 13 19 14
REMARK SMILES IDX 20 16 21 17 10 20 11 21 12 22 16 23 13 24 15 25 14 26 4 27
REMARK SMILES IDX 2 28 1 29 3 30 26 31 28 32 27 33 29 35 37 36 39 37 38 38
REMARK SMILES IDX 40 40 45 41 46 42 47 43 41 45 42 46 43 47 44 48 30 51 31 52
REMARK SMILES IDX 32 53 33 54 34 55 36 56 35 60
REMARK H PARENT 24 5 6 10 17 15 21 18 21 19 28 34 39 39 47 44 43 49 43 50
REMARK H PARENT 33 57 36 58 36 59 35 61
ROOT
ATOM      1  CA  GLY A   4      21.333   8.757  -8.202  1.00  0.00     0.216 C 
ENDROOT
BRANCH   1   2
ATOM      2  N   GLY A   4      20.561   9.914  -7.797  1.00  0.00    -0.345 N 
ATOM      3  C   LEU A   3      20.059  10.077  -6.482  1.00  0.00     0.243 C 
ATOM      4  O   LEU A   3      20.179   9.151  -5.633  1.00  0.00    -0.273 OA
ATOM      5  H   UNL     1      20.396  10.662  -8.509  1.00  0.00     0.164 HD
BRANCH   3   6
ATOM      6  CA  LEU A   3      19.343  11.347  -6.145  1.00  0.00     0.171 C 
BRANCH   6   7
ATOM      7  N   LEU A   3      18.083  11.016  -5.537  1.00  0.00    -0.343 N 
ATOM      8  C   PHE A   2      16.890  11.745  -5.780  1.00  0.00     0.243 C 
ATOM      9  O   PHE A   2      16.917  12.798  -6.475  1.00  0.00    -0.273 OA
ATOM     10  H   UNL     1      18.152  10.382  -4.717  1.00  0.00     0.164 HD
BRANCH   8  11
ATOM     11  CA  PHE A   2      15.643  11.318  -5.081  1.00  0.00     0.175 C 
BRANCH  11  12
ATOM     12  N   PHE A   2      14.466  11.768  -5.815  1.00  0.00    -0.343 N 
ATOM     13  C   GLY A   1      13.903  13.059  -5.616  1.00  0.00     0.234 C 
ATOM     14  O   GLY A   1      14.433  13.863  -4.802  1.00  0.00    -0.274 OA
ATOM     15  H   UNL     1      14.072  11.159  -6.570  1.00  0.00     0.164 HD
BRANCH  13  16
ATOM     16  CA  GLY A   1      12.657  13.427  -6.360  1.00  0.00     0.178 C 
BRANCH  16  17
ATOM     17  N   GLY A   1      12.484  14.874  -6.398  1.00  0.00    -0.322 NA
ATOM     18  H   UNL     1      12.192  15.195  -5.447  1.00  0.00     0.119 HD
ATOM     19  H   UNL     1      11.682  15.081  -7.037  1.00  0.00     0.119 HD
ENDBRANCH  16  17
ENDBRANCH  13  16
ENDBRANCH  11  12
BRANCH  11  20
ATOM     20  CB  PHE A   2      15.586   9.779  -4.911  1.00  0.00     0.070 C 
BRANCH  20  21
ATOM     21  CG  PHE A   2      14.425   9.298  -4.104  1.00  0.00    -0.045 A 
ATOM     22  CD1 PHE A   2      13.896  10.052  -3.040  1.00  0.00     0.004 A 
ATOM     23  CD2 PHE A   2      13.959   7.993  -4.313  1.00  0.00     0.004 A 
ATOM     24  CE1 PHE A   2      12.869   9.538  -2.259  1.00  0.00     0.000 A 
ATOM     25  CE2 PHE A   2      12.938   7.477  -3.517  1.00  0.00     0.000 A 
ATOM     26  CZ  PHE A   2      12.387   8.253  -2.497  1.00  0.00     0.000 A 
ENDBRANCH  20  21
ENDBRANCH  11  20
ENDBRANCH   8  11
ENDBRANCH   6   7
BRANCH   6  27
ATOM     27  CB  LEU A   3      20.165  12.248  -5.216  1.00  0.00     0.038 C 
BRANCH  27  28
ATOM     28  CG  LEU A   3      20.417  11.677  -3.791  1.00  0.00    -0.015 C 
ATOM     29  CD1 LEU A   3      21.819  12.064  -3.316  1.00  0.00     0.007 C 
ATOM     30  CD2 LEU A   3      19.369  12.168  -2.781  1.00  0.00     0.007 C 
ENDBRANCH  27  28
ENDBRANCH   6  27
ENDBRANCH   3   6
ENDBRANCH   1   2
BRANCH   1  31
ATOM     31  C   GLY A   4      22.707   9.205  -8.539  1.00  0.00     0.240 C 
ATOM     32  N   ARG A   5      23.807   8.709  -7.788  1.00  0.00    -0.343 N 
ATOM     33  O   GLY A   4      22.885  10.031  -9.475  1.00  0.00    -0.273 OA
ATOM     34  H   UNL     1      23.640   7.993  -7.045  1.00  0.00     0.164 HD
BRANCH  32  35
ATOM     35  CA  ARG A   5      25.175   9.114  -8.068  1.00  0.00     0.171 C 
BRANCH  35  36
ATOM     36  C   ARG A   5      25.896   7.965  -8.684  1.00  0.00     0.243 C 
ATOM     37  N   ASN A   6      25.915   7.866 -10.101  1.00  0.00    -0.341 N 
ATOM     38  O   ARG A   5      26.447   7.085  -7.969  1.00  0.00    -0.273 OA
ATOM     39  H   UNL     1      25.496   8.652 -10.649  1.00  0.00     0.164 HD
BRANCH  37  40
ATOM     40  CA  ASN A   6      26.543   6.751 -10.803  1.00  0.00     0.201 C 
BRANCH  40  41
ATOM     41  C   ASN A   6      27.993   6.642 -10.416  1.00  0.00     0.326 C 
ATOM     42  O   ASN A   6      28.795   7.579 -10.677  1.00  0.00    -0.250 OA
BRANCH  41  43
ATOM     43  OXT ASN A   6      28.452   5.499  -9.769  1.00  0.00    -0.480 OA
ATOM     44  H   UNL     1      29.425   5.409  -9.501  1.00  0.00     0.296 HD
ENDBRANCH  41  43
ENDBRANCH  40  41
BRANCH  40  45
ATOM     45  CB  ASN A   6      26.424   6.947 -12.323  1.00  0.00     0.136 C 
BRANCH  45  46
ATOM     46  CG  ASN A   6      25.010   7.182 -12.772  1.00  0.00     0.220 C 
ATOM     47  ND2 ASN A   6      24.754   8.089 -13.834  1.00  0.00    -0.370 N 
ATOM     48  OD1 ASN A   6      24.051   6.563 -12.238  1.00  0.00    -0.275 OA
ATOM     49  H   UNL     1      23.775   8.258 -14.157  1.00  0.00     0.159 HD
ATOM     50  H   UNL     1      25.534   8.596 -14.309  1.00  0.00     0.159 HD
ENDBRANCH  45  46
ENDBRANCH  40  45
ENDBRANCH  37  40
ENDBRANCH  35  36
BRANCH  35  51
ATOM     51  CB  ARG A   5      25.851   9.598  -6.790  1.00  0.00     0.037 C 
BRANCH  51  52
ATOM     52  CG  ARG A   5      25.163  10.859  -6.271  1.00  0.00     0.024 C 
BRANCH  52  53
ATOM     53  CD  ARG A   5      25.838  11.390  -5.015  1.00  0.00     0.116 C 
BRANCH  53  54
ATOM     54  NE  ARG A   5      25.377  10.684  -3.823  1.00  0.00    -0.357 N 
ATOM     55  CZ  ARG A   5      25.468  11.279  -2.527  1.00  0.00     0.185 C 
ATOM     56  NH2 ARG A   5      26.105  12.541  -2.350  1.00  0.00    -0.370 N 
ATOM     57  H   UNL     1      24.897   9.760  -3.921  1.00  0.00     0.163 HD
ATOM     58  H   UNL     1      26.081  13.008  -1.416  1.00  0.00     0.159 HD
ATOM     59  H   UNL     1      26.692  12.982  -3.091  1.00  0.00     0.159 HD
BRANCH  55  60
ATOM     60  NH1 ARG A   5      24.957  10.680  -1.500  1.00  0.00    -0.270 NA
ATOM     61  H   UNL     1      24.474   9.757  -1.584  1.00  0.00     0.191 HD
ENDBRANCH  55  60
ENDBRANCH  53  54
ENDBRANCH  52  53
ENDBRANCH  51  52
ENDBRANCH  35  51
ENDBRANCH  32  35
ENDBRANCH   1  31
TORSDOF 24
