REMARK SMILES CC(C)C[C@H](NC(=O)[C@H](C)NC(=O)[C@@H](N)CO)C(=O)N[C@@H](Cc1c[nH]cn1)C(=O)N[C@@H](CCCNC(=N)N)C(=O)N[C@@H](CC(N)=O)C(=O)O
REMARK SMILES IDX 18 1 19 2 20 3 5 5 6 6 7 7 8 8 9 10 10 11 11 12 12 13 13 14
REMARK SMILES IDX 14 16 15 17 16 20 17 21 4 23 2 24 1 25 3 26 21 27 28 28
REMARK SMILES IDX 30 29 29 30 31 32 39 33 41 34 40 35 42 37 47 38 48 39 49 40
REMARK SMILES IDX 43 42 44 43 45 44 46 45 32 48 33 49 34 50 35 51 36 52 38 53
REMARK SMILES IDX 37 57 22 59 23 60 27 61 24 62 26 63 25 64
REMARK H PARENT 20 4 6 9 11 15 15 18 15 19 17 22 30 31 41 36 49 41 45 46 45 47
REMARK H PARENT 35 54 38 55 38 56 37 58 25 65
ROOT
ATOM      1  C   LEU A   3       1.496   0.577   0.290  1.00  0.00     0.243 C 
ATOM      2  O   LEU A   3       1.454  -0.319  -0.601  1.00  0.00    -0.273 OA
ATOM      3  N   HIS A   4       0.369   1.461   0.471  1.00  0.00    -0.342 N 
ATOM      4  H   UNL     1       0.328   2.080   1.310  1.00  0.00     0.164 HD
ENDROOT
BRANCH   1   5
ATOM      5  CA  LEU A   3       2.758   0.682   1.125  1.00  0.00     0.171 C 
BRANCH   5   6
ATOM      6  N   LEU A   3       3.913   0.740   0.222  1.00  0.00    -0.343 N 
ATOM      7  C   ALA A   2       4.634  -0.429  -0.189  1.00  0.00     0.242 C 
ATOM      8  O   ALA A   2       4.265  -1.573   0.196  1.00  0.00    -0.273 OA
ATOM      9  H   UNL     1       4.139   1.650  -0.240  1.00  0.00     0.164 HD
BRANCH   7  10
ATOM     10  CA  ALA A   2       5.799  -0.298  -1.134  1.00  0.00     0.168 C 
ATOM     11  CB  ALA A   2       5.310  -0.425  -2.576  1.00  0.00     0.041 C 
BRANCH  10  12
ATOM     12  N   ALA A   2       6.811  -1.319  -0.840  1.00  0.00    -0.343 N 
ATOM     13  C   SER A   1       7.551  -1.315   0.391  1.00  0.00     0.239 C 
ATOM     14  O   SER A   1       7.464  -0.331   1.178  1.00  0.00    -0.273 OA
ATOM     15  H   UNL     1       6.987  -2.084  -1.526  1.00  0.00     0.164 HD
BRANCH  13  16
ATOM     16  CA  SER A   1       8.397  -2.508   0.773  1.00  0.00     0.167 C 
BRANCH  16  17
ATOM     17  N   SER A   1       9.760  -2.099   1.118  1.00  0.00    -0.318 NA
ATOM     18  H   UNL     1      10.180  -1.613   0.294  1.00  0.00     0.119 HD
ATOM     19  H   UNL     1       9.731  -1.406   1.904  1.00  0.00     0.119 HD
ENDBRANCH  16  17
BRANCH  16  20
ATOM     20  CB  SER A   1       7.762  -3.270   1.945  1.00  0.00     0.184 C 
BRANCH  20  21
ATOM     21  OG  SER A   1       6.472  -3.707   1.613  1.00  0.00    -0.394 OA
ATOM     22  H   UNL     1       6.580  -4.466   0.984  1.00  0.00     0.210 HD
ENDBRANCH  20  21
ENDBRANCH  16  20
ENDBRANCH  13  16
ENDBRANCH  10  12
ENDBRANCH   7  10
ENDBRANCH   5   6
BRANCH   5  23
ATOM     23  CB  LEU A   3       2.783   1.893   2.088  1.00  0.00     0.038 C 
BRANCH  23  24
ATOM     24  CG  LEU A   3       4.124   2.075   2.844  1.00  0.00    -0.015 C 
ATOM     25  CD1 LEU A   3       4.456   0.869   3.734  1.00  0.00     0.007 C 
ATOM     26  CD2 LEU A   3       4.075   3.351   3.695  1.00  0.00     0.007 C 
ENDBRANCH  23  24
ENDBRANCH   5  23
ENDBRANCH   1   5
BRANCH   3  27
ATOM     27  CA  HIS A   4      -0.754   1.585  -0.472  1.00  0.00     0.177 C 
BRANCH  27  28
ATOM     28  C   HIS A   4      -1.685   0.403  -0.380  1.00  0.00     0.243 C 
ATOM     29  N   ARG A   5      -3.081   0.577  -0.652  1.00  0.00    -0.343 N 
ATOM     30  O   HIS A   4      -1.238  -0.740  -0.081  1.00  0.00    -0.273 OA
ATOM     31  H   UNL     1      -3.404   1.494  -1.032  1.00  0.00     0.164 HD
BRANCH  29  32
ATOM     32  CA  ARG A   5      -4.060  -0.484  -0.389  1.00  0.00     0.171 C 
BRANCH  32  33
ATOM     33  C   ARG A   5      -4.047  -1.490  -1.509  1.00  0.00     0.243 C 
ATOM     34  N   ASN A   6      -4.310  -2.874  -1.227  1.00  0.00    -0.341 N 
ATOM     35  O   ARG A   5      -3.863  -1.106  -2.697  1.00  0.00    -0.273 OA
ATOM     36  H   UNL     1      -4.386  -3.162  -0.226  1.00  0.00     0.164 HD
BRANCH  34  37
ATOM     37  CA  ASN A   6      -4.443  -3.881  -2.288  1.00  0.00     0.201 C 
BRANCH  37  38
ATOM     38  C   ASN A   6      -5.657  -3.612  -3.137  1.00  0.00     0.326 C 
ATOM     39  O   ASN A   6      -6.669  -3.038  -2.647  1.00  0.00    -0.250 OA
BRANCH  38  40
ATOM     40  OXT ASN A   6      -5.673  -4.033  -4.463  1.00  0.00    -0.480 OA
ATOM     41  H   UNL     1      -6.482  -3.872  -5.050  1.00  0.00     0.296 HD
ENDBRANCH  38  40
ENDBRANCH  37  38
BRANCH  37  42
ATOM     42  CB  ASN A   6      -4.478  -5.312  -1.712  1.00  0.00     0.136 C 
BRANCH  42  43
ATOM     43  CG  ASN A   6      -5.642  -5.554  -0.787  1.00  0.00     0.220 C 
ATOM     44  ND2 ASN A   6      -5.467  -5.500   0.629  1.00  0.00    -0.370 N 
ATOM     45  OD1 ASN A   6      -6.784  -5.793  -1.264  1.00  0.00    -0.275 OA
ATOM     46  H   UNL     1      -6.283  -5.642   1.266  1.00  0.00     0.159 HD
ATOM     47  H   UNL     1      -4.526  -5.325   1.046  1.00  0.00     0.159 HD
ENDBRANCH  42  43
ENDBRANCH  37  42
ENDBRANCH  34  37
ENDBRANCH  32  33
BRANCH  32  48
ATOM     48  CB  ARG A   5      -5.477   0.099  -0.232  1.00  0.00     0.037 C 
BRANCH  48  49
ATOM     49  CG  ARG A   5      -5.584   0.998   1.012  1.00  0.00     0.024 C 
BRANCH  49  50
ATOM     50  CD  ARG A   5      -6.993   1.579   1.184  1.00  0.00     0.116 C 
BRANCH  50  51
ATOM     51  NE  ARG A   5      -7.291   2.591   0.166  1.00  0.00    -0.357 N 
ATOM     52  CZ  ARG A   5      -8.543   3.297   0.101  1.00  0.00     0.185 C 
ATOM     53  NH2 ARG A   5      -8.757   4.247  -0.943  1.00  0.00    -0.370 N 
ATOM     54  H   UNL     1      -6.564   2.833  -0.545  1.00  0.00     0.163 HD
ATOM     55  H   UNL     1      -8.024   4.418  -1.668  1.00  0.00     0.159 HD
ATOM     56  H   UNL     1      -9.651   4.787  -0.993  1.00  0.00     0.159 HD
BRANCH  52  57
ATOM     57  NH1 ARG A   5      -9.482   3.099   0.974  1.00  0.00    -0.270 NA
ATOM     58  H   UNL     1      -9.398   2.427   1.767  1.00  0.00     0.191 HD
ENDBRANCH  52  57
ENDBRANCH  50  51
ENDBRANCH  49  50
ENDBRANCH  48  49
ENDBRANCH  32  48
ENDBRANCH  29  32
ENDBRANCH  27  28
BRANCH  27  59
ATOM     59  CB  HIS A   4      -0.288   1.815  -1.924  1.00  0.00     0.093 C 
BRANCH  59  60
ATOM     60  CG  HIS A   4       0.673   2.961  -2.013  1.00  0.00     0.061 A 
ATOM     61  ND1 HIS A   4       2.013   2.815  -2.077  1.00  0.00    -0.242 NA
ATOM     62  CD2 HIS A   4       0.351   4.299  -1.940  1.00  0.00     0.107 A 
ATOM     63  CE1 HIS A   4       2.479   4.083  -2.056  1.00  0.00     0.196 A 
ATOM     64  NE2 HIS A   4       1.496   5.000  -1.973  1.00  0.00    -0.351 N 
ATOM     65  H   UNL     1       1.604   6.038  -1.932  1.00  0.00     0.167 HD
ENDBRANCH  59  60
ENDBRANCH  27  59
ENDBRANCH   3  27
TORSDOF 26
