REMARK SMILES CC(C)C[C@H](NC(=O)[C@H](Cc1ccccc1)NC(=O)[C@@H](N)CO)C(=O)N[C@@H](CC(N)=O)C(=O)N[C@@H](CCCNC(=N)N)C(=O)N[C@@H](C)C(=O)O
REMARK SMILES IDX 24 1 25 2 26 3 5 5 6 6 7 7 8 8 9 10 17 11 18 12 19 13 20 15
REMARK SMILES IDX 21 16 22 19 23 20 10 22 11 23 12 24 16 25 13 26 15 27 14 28
REMARK SMILES IDX 4 29 2 30 1 31 3 32 27 33 32 34 34 35 33 36 35 38 43 39
REMARK SMILES IDX 45 40 44 41 46 43 47 44 48 45 49 46 50 47 36 49 37 50 38 51
REMARK SMILES IDX 39 52 40 53 42 54 41 58 28 60 29 61 30 62 31 63
REMARK H PARENT 26 4 6 9 17 14 21 17 21 18 23 21 34 37 45 42 50 48 39 55 42 56
REMARK H PARENT 42 57 41 59 30 64 30 65
ROOT
ATOM      1  C   LEU A   3      20.055  10.079  -6.478  1.00  0.00     0.243 C 
ATOM      2  O   LEU A   3      20.169   9.157  -5.624  1.00  0.00    -0.273 OA
ATOM      3  N   ASN A   4      20.562   9.906  -7.789  1.00  0.00    -0.342 N 
ATOM      4  H   UNL     1      20.397  10.648  -8.509  1.00  0.00     0.164 HD
ENDROOT
BRANCH   1   5
ATOM      5  CA  LEU A   3      19.342  11.350  -6.148  1.00  0.00     0.171 C 
BRANCH   5   6
ATOM      6  N   LEU A   3      18.084  11.019  -5.539  1.00  0.00    -0.343 N 
ATOM      7  C   PHE A   2      16.888  11.744  -5.776  1.00  0.00     0.243 C 
ATOM      8  O   PHE A   2      16.906  12.795  -6.474  1.00  0.00    -0.273 OA
ATOM      9  H   UNL     1      18.156  10.384  -4.720  1.00  0.00     0.164 HD
BRANCH   7  10
ATOM     10  CA  PHE A   2      15.653  11.312  -5.056  1.00  0.00     0.175 C 
BRANCH  10  11
ATOM     11  N   PHE A   2      14.457  11.739  -5.768  1.00  0.00    -0.343 N 
ATOM     12  C   SER A   1      13.917  13.048  -5.632  1.00  0.00     0.239 C 
ATOM     13  O   SER A   1      14.448  13.865  -4.831  1.00  0.00    -0.273 OA
ATOM     14  H   UNL     1      13.876  11.000  -6.220  1.00  0.00     0.164 HD
BRANCH  12  15
ATOM     15  CA  SER A   1      12.661  13.412  -6.387  1.00  0.00     0.167 C 
BRANCH  15  16
ATOM     16  N   SER A   1      12.457  14.862  -6.397  1.00  0.00    -0.318 NA
ATOM     17  H   UNL     1      13.318  15.336  -6.757  1.00  0.00     0.119 HD
ATOM     18  H   UNL     1      12.292  15.191  -5.418  1.00  0.00     0.119 HD
ENDBRANCH  15  16
BRANCH  15  19
ATOM     19  CB  SER A   1      12.690  12.888  -7.841  1.00  0.00     0.184 C 
BRANCH  19  20
ATOM     20  OG  SER A   1      11.437  13.050  -8.444  1.00  0.00    -0.394 OA
ATOM     21  H   UNL     1      11.386  13.993  -8.750  1.00  0.00     0.210 HD
ENDBRANCH  19  20
ENDBRANCH  15  19
ENDBRANCH  12  15
ENDBRANCH  10  11
BRANCH  10  22
ATOM     22  CB  PHE A   2      15.611   9.773  -4.880  1.00  0.00     0.070 C 
BRANCH  22  23
ATOM     23  CG  PHE A   2      14.435   9.292  -4.092  1.00  0.00    -0.045 A 
ATOM     24  CD1 PHE A   2      13.898  10.048  -3.033  1.00  0.00     0.004 A 
ATOM     25  CD2 PHE A   2      13.964   7.991  -4.310  1.00  0.00     0.004 A 
ATOM     26  CE1 PHE A   2      12.866   9.535  -2.258  1.00  0.00     0.000 A 
ATOM     27  CE2 PHE A   2      12.937   7.477  -3.520  1.00  0.00     0.000 A 
ATOM     28  CZ  PHE A   2      12.384   8.252  -2.500  1.00  0.00     0.000 A 
ENDBRANCH  22  23
ENDBRANCH  10  22
ENDBRANCH   7  10
ENDBRANCH   5   6
BRANCH   5  29
ATOM     29  CB  LEU A   3      20.165  12.251  -5.217  1.00  0.00     0.038 C 
BRANCH  29  30
ATOM     30  CG  LEU A   3      20.417  11.679  -3.792  1.00  0.00    -0.015 C 
ATOM     31  CD1 LEU A   3      21.819  12.066  -3.316  1.00  0.00     0.007 C 
ATOM     32  CD2 LEU A   3      19.369  12.169  -2.782  1.00  0.00     0.007 C 
ENDBRANCH  29  30
ENDBRANCH   5  29
ENDBRANCH   1   5
BRANCH   3  33
ATOM     33  CA  ASN A   4      21.345   8.743  -8.164  1.00  0.00     0.180 C 
BRANCH  33  34
ATOM     34  C   ASN A   4      22.712   9.207  -8.529  1.00  0.00     0.243 C 
ATOM     35  N   ARG A   5      23.819   8.709  -7.793  1.00  0.00    -0.343 N 
ATOM     36  O   ASN A   4      22.879  10.037  -9.464  1.00  0.00    -0.273 OA
ATOM     37  H   UNL     1      23.664   7.984  -7.055  1.00  0.00     0.164 HD
BRANCH  35  38
ATOM     38  CA  ARG A   5      25.183   9.116  -8.077  1.00  0.00     0.171 C 
BRANCH  38  39
ATOM     39  C   ARG A   5      25.899   7.963  -8.692  1.00  0.00     0.243 C 
ATOM     40  N   ALA A   6      25.885   7.840 -10.110  1.00  0.00    -0.341 N 
ATOM     41  O   ARG A   5      26.458   7.090  -7.975  1.00  0.00    -0.273 OA
ATOM     42  H   UNL     1      25.368   8.563 -10.662  1.00  0.00     0.164 HD
BRANCH  40  43
ATOM     43  CA  ALA A   6      26.544   6.745 -10.814  1.00  0.00     0.189 C 
ATOM     44  CB  ALA A   6      26.418   6.955 -12.323  1.00  0.00     0.043 C 
BRANCH  43  45
ATOM     45  C   ALA A   6      27.993   6.651 -10.419  1.00  0.00     0.325 C 
ATOM     46  O   ALA A   6      28.790   7.589 -10.686  1.00  0.00    -0.250 OA
BRANCH  45  47
ATOM     47  OXT ALA A   6      28.456   5.519  -9.755  1.00  0.00    -0.480 OA
ATOM     48  H   UNL     1      29.428   5.438  -9.481  1.00  0.00     0.296 HD
ENDBRANCH  45  47
ENDBRANCH  43  45
ENDBRANCH  40  43
ENDBRANCH  38  39
BRANCH  38  49
ATOM     49  CB  ARG A   5      25.858   9.600  -6.797  1.00  0.00     0.037 C 
BRANCH  49  50
ATOM     50  CG  ARG A   5      25.163  10.856  -6.272  1.00  0.00     0.024 C 
BRANCH  50  51
ATOM     51  CD  ARG A   5      25.839  11.389  -5.015  1.00  0.00     0.116 C 
BRANCH  51  52
ATOM     52  NE  ARG A   5      25.377  10.685  -3.821  1.00  0.00    -0.357 N 
ATOM     53  CZ  ARG A   5      25.469  11.281  -2.527  1.00  0.00     0.185 C 
ATOM     54  NH2 ARG A   5      26.107  12.546  -2.353  1.00  0.00    -0.370 N 
ATOM     55  H   UNL     1      24.894   9.762  -3.912  1.00  0.00     0.163 HD
ATOM     56  H   UNL     1      26.696  12.982  -3.095  1.00  0.00     0.159 HD
ATOM     57  H   UNL     1      26.080  13.024  -1.425  1.00  0.00     0.159 HD
BRANCH  53  58
ATOM     58  NH1 ARG A   5      24.955  10.672  -1.507  1.00  0.00    -0.270 NA
ATOM     59  H   UNL     1      24.996  11.077  -0.545  1.00  0.00     0.191 HD
ENDBRANCH  53  58
ENDBRANCH  51  52
ENDBRANCH  50  51
ENDBRANCH  49  50
ENDBRANCH  38  49
ENDBRANCH  35  38
ENDBRANCH  33  34
BRANCH  33  60
ATOM     60  CB  ASN A   4      20.664   8.005  -9.318  1.00  0.00     0.134 C 
BRANCH  60  61
ATOM     61  CG  ASN A   4      21.438   6.786  -9.738  1.00  0.00     0.220 C 
ATOM     62  ND2 ASN A   4      22.430   6.872 -10.762  1.00  0.00    -0.370 N 
ATOM     63  OD1 ASN A   4      21.242   5.688  -9.151  1.00  0.00    -0.275 OA
ATOM     64  H   UNL     1      22.991   6.031 -11.024  1.00  0.00     0.159 HD
ATOM     65  H   UNL     1      22.617   7.775 -11.251  1.00  0.00     0.159 HD
ENDBRANCH  60  61
ENDBRANCH  33  60
ENDBRANCH   3  33
TORSDOF 26
