REMARK SMILES CC(C)C[C@H](NC(=O)[C@H](Cc1c[nH]cn1)NC(=O)[C@H](Cc1ccccc1)NC(=O)[C@@H](N)CO)C(=O)NCC(=O)N[C@@H](CC(N)=O)C(=O)O
REMARK SMILES IDX 7 1 8 2 6 3 9 5 16 6 17 7 18 8 19 10 27 11 28 12 29 13 30 15
REMARK SMILES IDX 31 16 32 19 33 20 20 22 21 23 22 24 26 25 23 26 25 27 24 28
REMARK SMILES IDX 10 29 11 30 15 31 12 32 14 33 13 34 5 36 34 37 36 38 35 39
REMARK SMILES IDX 37 41 38 42 40 43 39 44 41 46 46 47 47 48 48 49 42 51 43 52
REMARK SMILES IDX 44 53 45 54 4 57 2 58 1 59 3 60
REMARK H PARENT 6 4 16 9 27 14 31 17 31 18 33 21 13 35 36 40 40 45 48 50 44 55
REMARK H PARENT 44 56
ROOT
ATOM      1  C   HIS A   3      20.053  10.095  -6.460  1.00  0.00     0.243 C 
ATOM      2  O   HIS A   3      20.170   9.182  -5.595  1.00  0.00    -0.273 OA
ATOM      3  N   LEU A   4      20.570   9.923  -7.770  1.00  0.00    -0.342 N 
ATOM      4  H   UNL     1      20.405  10.661  -8.492  1.00  0.00     0.164 HD
ENDROOT
BRANCH   1   5
ATOM      5  CA  HIS A   3      19.347  11.367  -6.132  1.00  0.00     0.177 C 
BRANCH   5   6
ATOM      6  N   HIS A   3      18.089  11.042  -5.512  1.00  0.00    -0.342 N 
ATOM      7  C   PHE A   2      16.888  11.749  -5.774  1.00  0.00     0.243 C 
ATOM      8  O   PHE A   2      16.903  12.793  -6.482  1.00  0.00    -0.273 OA
ATOM      9  H   UNL     1      18.164  10.475  -4.642  1.00  0.00     0.164 HD
BRANCH   7  10
ATOM     10  CA  PHE A   2      15.653  11.313  -5.059  1.00  0.00     0.175 C 
BRANCH  10  11
ATOM     11  N   PHE A   2      14.456  11.740  -5.768  1.00  0.00    -0.343 N 
ATOM     12  C   SER A   1      13.917  13.049  -5.633  1.00  0.00     0.239 C 
ATOM     13  O   SER A   1      14.448  13.866  -4.831  1.00  0.00    -0.273 OA
ATOM     14  H   UNL     1      13.872  11.001  -6.218  1.00  0.00     0.164 HD
BRANCH  12  15
ATOM     15  CA  SER A   1      12.661  13.412  -6.387  1.00  0.00     0.167 C 
BRANCH  15  16
ATOM     16  N   SER A   1      12.457  14.862  -6.397  1.00  0.00    -0.318 NA
ATOM     17  H   UNL     1      13.318  15.337  -6.758  1.00  0.00     0.119 HD
ATOM     18  H   UNL     1      12.292  15.192  -5.418  1.00  0.00     0.119 HD
ENDBRANCH  15  16
BRANCH  15  19
ATOM     19  CB  SER A   1      12.690  12.888  -7.841  1.00  0.00     0.184 C 
BRANCH  19  20
ATOM     20  OG  SER A   1      11.437  13.050  -8.444  1.00  0.00    -0.394 OA
ATOM     21  H   UNL     1      11.385  13.993  -8.750  1.00  0.00     0.210 HD
ENDBRANCH  19  20
ENDBRANCH  15  19
ENDBRANCH  12  15
ENDBRANCH  10  11
BRANCH  10  22
ATOM     22  CB  PHE A   2      15.613   9.773  -4.888  1.00  0.00     0.070 C 
BRANCH  22  23
ATOM     23  CG  PHE A   2      14.442   9.290  -4.091  1.00  0.00    -0.045 A 
ATOM     24  CD1 PHE A   2      13.902  10.047  -3.033  1.00  0.00     0.004 A 
ATOM     25  CD2 PHE A   2      13.967   7.990  -4.310  1.00  0.00     0.004 A 
ATOM     26  CE1 PHE A   2      12.868   9.536  -2.260  1.00  0.00     0.000 A 
ATOM     27  CE2 PHE A   2      12.939   7.477  -3.521  1.00  0.00     0.000 A 
ATOM     28  CZ  PHE A   2      12.386   8.252  -2.502  1.00  0.00     0.000 A 
ENDBRANCH  22  23
ENDBRANCH  10  22
ENDBRANCH   7  10
ENDBRANCH   5   6
BRANCH   5  29
ATOM     29  CB  HIS A   3      20.175  12.263  -5.201  1.00  0.00     0.093 C 
BRANCH  29  30
ATOM     30  CG  HIS A   3      20.413  11.674  -3.835  1.00  0.00     0.061 A 
ATOM     31  ND1 HIS A   3      21.462  10.885  -3.524  1.00  0.00    -0.242 NA
ATOM     32  CD2 HIS A   3      19.606  11.836  -2.730  1.00  0.00     0.107 A 
ATOM     33  CE1 HIS A   3      21.265  10.582  -2.224  1.00  0.00     0.196 A 
ATOM     34  NE2 HIS A   3      20.150  11.144  -1.719  1.00  0.00    -0.351 N 
ATOM     35  H   UNL     1      19.784  11.056  -0.745  1.00  0.00     0.167 HD
ENDBRANCH  29  30
ENDBRANCH   5  29
ENDBRANCH   1   5
BRANCH   3  36
ATOM     36  CA  LEU A   4      21.357   8.762  -8.137  1.00  0.00     0.171 C 
BRANCH  36  37
ATOM     37  C   LEU A   4      22.727   9.219  -8.513  1.00  0.00     0.243 C 
ATOM     38  N   GLY A   5      23.833   8.754  -7.748  1.00  0.00    -0.345 N 
ATOM     39  O   LEU A   4      22.895  10.024  -9.469  1.00  0.00    -0.273 OA
ATOM     40  H   UNL     1      23.672   8.095  -6.953  1.00  0.00     0.164 HD
BRANCH  38  41
ATOM     41  CA  GLY A   5      25.204   9.125  -8.036  1.00  0.00     0.216 C 
BRANCH  41  42
ATOM     42  C   GLY A   5      25.895   7.974  -8.676  1.00  0.00     0.240 C 
ATOM     43  N   ASN A   6      25.905   7.875 -10.094  1.00  0.00    -0.341 N 
ATOM     44  O   GLY A   5      26.449   7.095  -7.964  1.00  0.00    -0.273 OA
ATOM     45  H   UNL     1      25.479   8.661 -10.637  1.00  0.00     0.164 HD
BRANCH  43  46
ATOM     46  CA  ASN A   6      26.536   6.760 -10.798  1.00  0.00     0.201 C 
BRANCH  46  47
ATOM     47  C   ASN A   6      27.987   6.647 -10.411  1.00  0.00     0.326 C 
ATOM     48  O   ASN A   6      28.792   7.579 -10.677  1.00  0.00    -0.250 OA
BRANCH  47  49
ATOM     49  OXT ASN A   6      28.441   5.504  -9.760  1.00  0.00    -0.480 OA
ATOM     50  H   UNL     1      29.414   5.411  -9.492  1.00  0.00     0.296 HD
ENDBRANCH  47  49
ENDBRANCH  46  47
BRANCH  46  51
ATOM     51  CB  ASN A   6      26.421   6.954 -12.318  1.00  0.00     0.136 C 
BRANCH  51  52
ATOM     52  CG  ASN A   6      25.008   7.183 -12.771  1.00  0.00     0.220 C 
ATOM     53  ND2 ASN A   6      24.752   8.091 -13.834  1.00  0.00    -0.370 N 
ATOM     54  OD1 ASN A   6      24.052   6.558 -12.243  1.00  0.00    -0.275 OA
ATOM     55  H   UNL     1      23.773   8.254 -14.160  1.00  0.00     0.159 HD
ATOM     56  H   UNL     1      25.531   8.602 -14.305  1.00  0.00     0.159 HD
ENDBRANCH  51  52
ENDBRANCH  46  51
ENDBRANCH  43  46
ENDBRANCH  41  42
ENDBRANCH  38  41
ENDBRANCH  36  37
BRANCH  36  57
ATOM     57  CB  LEU A   4      20.662   8.002  -9.271  1.00  0.00     0.038 C 
BRANCH  57  58
ATOM     58  CG  LEU A   4      21.452   6.772  -9.768  1.00  0.00    -0.015 C 
ATOM     59  CD1 LEU A   4      21.767   5.782  -8.637  1.00  0.00     0.007 C 
ATOM     60  CD2 LEU A   4      20.662   6.068 -10.875  1.00  0.00     0.007 C 
ENDBRANCH  57  58
ENDBRANCH  36  57
ENDBRANCH   3  36
TORSDOF 23
