REMARK SMILES CC(C)C[C@H](NC(=O)[C@H](Cc1c[nH]cn1)NC(=O)[C@H](C)NC(=O)[C@@H](N)CO)C(=O)N[C@@H](CCCNC(=N)N)C(=O)N[C@@H](CC(N)=O)C(=O)O
REMARK SMILES IDX 7 1 8 2 6 3 9 5 16 6 17 7 18 8 19 10 20 11 21 12 22 13 23 14
REMARK SMILES IDX 24 16 25 17 26 20 27 21 10 23 11 24 15 25 12 26 14 27 13 28
REMARK SMILES IDX 5 30 28 31 30 32 29 33 31 35 39 36 41 37 40 38 42 40 47 41
REMARK SMILES IDX 48 42 49 43 43 45 44 46 45 47 46 48 32 51 33 52 34 53 35 54
REMARK SMILES IDX 36 55 38 56 37 60 4 62 2 63 1 64 3 65
REMARK H PARENT 6 4 16 9 21 15 25 18 25 19 27 22 13 29 30 34 41 39 49 44 45 49
REMARK H PARENT 45 50 35 57 38 58 38 59 37 61
ROOT
ATOM      1  C   HIS A   3      20.047  10.090  -6.456  1.00  0.00     0.243 C 
ATOM      2  O   HIS A   3      20.175   9.177  -5.593  1.00  0.00    -0.273 OA
ATOM      3  N   LEU A   4      20.562   9.923  -7.768  1.00  0.00    -0.342 N 
ATOM      4  H   UNL     1      20.394  10.663  -8.488  1.00  0.00     0.164 HD
ENDROOT
BRANCH   1   5
ATOM      5  CA  HIS A   3      19.329  11.353  -6.122  1.00  0.00     0.177 C 
BRANCH   5   6
ATOM      6  N   HIS A   3      18.066  11.015  -5.504  1.00  0.00    -0.342 N 
ATOM      7  C   ALA A   2      16.872  11.746  -5.736  1.00  0.00     0.242 C 
ATOM      8  O   ALA A   2      16.893  12.791  -6.446  1.00  0.00    -0.273 OA
ATOM      9  H   UNL     1      18.100  10.346  -4.704  1.00  0.00     0.164 HD
BRANCH   7  10
ATOM     10  CA  ALA A   2      15.617  11.294  -5.040  1.00  0.00     0.168 C 
ATOM     11  CB  ALA A   2      15.567   9.762  -4.904  1.00  0.00     0.041 C 
BRANCH  10  12
ATOM     12  N   ALA A   2      14.439  11.732  -5.767  1.00  0.00    -0.343 N 
ATOM     13  C   SER A   1      13.913  13.047  -5.635  1.00  0.00     0.239 C 
ATOM     14  O   SER A   1      14.449  13.863  -4.835  1.00  0.00    -0.273 OA
ATOM     15  H   UNL     1      13.850  11.001  -6.222  1.00  0.00     0.164 HD
BRANCH  13  16
ATOM     16  CA  SER A   1      12.659  13.414  -6.389  1.00  0.00     0.167 C 
BRANCH  16  17
ATOM     17  N   SER A   1      12.455  14.863  -6.398  1.00  0.00    -0.318 NA
ATOM     18  H   UNL     1      12.286  15.191  -5.419  1.00  0.00     0.119 HD
ATOM     19  H   UNL     1      13.317  15.339  -6.753  1.00  0.00     0.119 HD
ENDBRANCH  16  17
BRANCH  16  20
ATOM     20  CB  SER A   1      12.689  12.893  -7.844  1.00  0.00     0.184 C 
BRANCH  20  21
ATOM     21  OG  SER A   1      11.435  13.054  -8.447  1.00  0.00    -0.394 OA
ATOM     22  H   UNL     1      10.842  12.356  -8.065  1.00  0.00     0.210 HD
ENDBRANCH  20  21
ENDBRANCH  16  20
ENDBRANCH  13  16
ENDBRANCH  10  12
ENDBRANCH   7  10
ENDBRANCH   5   6
BRANCH   5  23
ATOM     23  CB  HIS A   3      20.156  12.255  -5.194  1.00  0.00     0.093 C 
BRANCH  23  24
ATOM     24  CG  HIS A   3      20.400  11.663  -3.832  1.00  0.00     0.061 A 
ATOM     25  ND1 HIS A   3      19.527  11.744  -2.807  1.00  0.00    -0.242 NA
ATOM     26  CD2 HIS A   3      21.509  10.941  -3.448  1.00  0.00     0.107 A 
ATOM     27  CE1 HIS A   3      20.133  11.062  -1.812  1.00  0.00     0.196 A 
ATOM     28  NE2 HIS A   3      21.331  10.565  -2.173  1.00  0.00    -0.351 N 
ATOM     29  H   UNL     1      21.981   9.999  -1.584  1.00  0.00     0.167 HD
ENDBRANCH  23  24
ENDBRANCH   5  23
ENDBRANCH   1   5
BRANCH   3  30
ATOM     30  CA  LEU A   4      21.347   8.761  -8.138  1.00  0.00     0.171 C 
BRANCH  30  31
ATOM     31  C   LEU A   4      22.712   9.217  -8.519  1.00  0.00     0.243 C 
ATOM     32  N   ARG A   5      23.822   8.720  -7.785  1.00  0.00    -0.343 N 
ATOM     33  O   LEU A   4      22.876  10.033  -9.467  1.00  0.00    -0.273 OA
ATOM     34  H   UNL     1      23.667   8.031  -7.014  1.00  0.00     0.164 HD
BRANCH  32  35
ATOM     35  CA  ARG A   5      25.185   9.122  -8.073  1.00  0.00     0.171 C 
BRANCH  35  36
ATOM     36  C   ARG A   5      25.899   7.968  -8.685  1.00  0.00     0.243 C 
ATOM     37  N   ASN A   6      25.913   7.864 -10.102  1.00  0.00    -0.341 N 
ATOM     38  O   ARG A   5      26.447   7.087  -7.969  1.00  0.00    -0.273 OA
ATOM     39  H   UNL     1      25.489   8.647 -10.651  1.00  0.00     0.164 HD
BRANCH  37  40
ATOM     40  CA  ASN A   6      26.542   6.751 -10.804  1.00  0.00     0.201 C 
BRANCH  40  41
ATOM     41  C   ASN A   6      27.993   6.642 -10.416  1.00  0.00     0.326 C 
ATOM     42  O   ASN A   6      28.794   7.579 -10.677  1.00  0.00    -0.250 OA
BRANCH  41  43
ATOM     43  OXT ASN A   6      28.451   5.499  -9.768  1.00  0.00    -0.480 OA
ATOM     44  H   UNL     1      29.424   5.409  -9.499  1.00  0.00     0.296 HD
ENDBRANCH  41  43
ENDBRANCH  40  41
BRANCH  40  45
ATOM     45  CB  ASN A   6      26.424   6.946 -12.323  1.00  0.00     0.136 C 
BRANCH  45  46
ATOM     46  CG  ASN A   6      25.010   7.180 -12.773  1.00  0.00     0.220 C 
ATOM     47  ND2 ASN A   6      24.753   8.090 -13.833  1.00  0.00    -0.370 N 
ATOM     48  OD1 ASN A   6      24.053   6.558 -12.243  1.00  0.00    -0.275 OA
ATOM     49  H   UNL     1      23.775   8.258 -14.156  1.00  0.00     0.159 HD
ATOM     50  H   UNL     1      25.533   8.600 -14.306  1.00  0.00     0.159 HD
ENDBRANCH  45  46
ENDBRANCH  40  45
ENDBRANCH  37  40
ENDBRANCH  35  36
BRANCH  35  51
ATOM     51  CB  ARG A   5      25.863   9.605  -6.796  1.00  0.00     0.037 C 
BRANCH  51  52
ATOM     52  CG  ARG A   5      25.166  10.861  -6.271  1.00  0.00     0.024 C 
BRANCH  52  53
ATOM     53  CD  ARG A   5      25.840  11.392  -5.015  1.00  0.00     0.116 C 
BRANCH  53  54
ATOM     54  NE  ARG A   5      25.379  10.684  -3.823  1.00  0.00    -0.357 N 
ATOM     55  CZ  ARG A   5      25.468  11.279  -2.527  1.00  0.00     0.185 C 
ATOM     56  NH2 ARG A   5      26.103  12.543  -2.350  1.00  0.00    -0.370 N 
ATOM     57  H   UNL     1      24.908   9.755  -3.921  1.00  0.00     0.163 HD
ATOM     58  H   UNL     1      26.080  13.008  -1.415  1.00  0.00     0.159 HD
ATOM     59  H   UNL     1      26.688  12.986  -3.091  1.00  0.00     0.159 HD
BRANCH  55  60
ATOM     60  NH1 ARG A   5      24.962  10.676  -1.499  1.00  0.00    -0.270 NA
ATOM     61  H   UNL     1      24.489   9.749  -1.583  1.00  0.00     0.191 HD
ENDBRANCH  55  60
ENDBRANCH  53  54
ENDBRANCH  52  53
ENDBRANCH  51  52
ENDBRANCH  35  51
ENDBRANCH  32  35
ENDBRANCH  30  31
BRANCH  30  62
ATOM     62  CB  LEU A   4      20.654   8.000  -9.270  1.00  0.00     0.038 C 
BRANCH  62  63
ATOM     63  CG  LEU A   4      21.448   6.772  -9.768  1.00  0.00    -0.015 C 
ATOM     64  CD1 LEU A   4      21.762   5.779  -8.639  1.00  0.00     0.007 C 
ATOM     65  CD2 LEU A   4      20.661   6.068 -10.877  1.00  0.00     0.007 C 
ENDBRANCH  62  63
ENDBRANCH  30  62
ENDBRANCH   3  30
TORSDOF 26
