REMARK SMILES CC(C)C[C@H](NC(=O)CNC(=O)[C@@H](NC(=O)[C@@H](N)CO)[C@@H](C)O)C(=O)N[C@@H](CCCNC(=N)N)C(=O)N[C@@H](CC(N)=O)C(=O)O
REMARK SMILES IDX 7 1 8 2 6 3 9 5 10 6 11 7 12 8 13 10 14 11 15 12 16 13 17 15
REMARK SMILES IDX 18 16 19 19 20 20 21 22 22 23 23 24 5 26 24 27 26 28 25 29
REMARK SMILES IDX 27 31 35 32 37 33 36 34 38 36 43 37 44 38 45 39 39 41 40 42
REMARK SMILES IDX 41 43 42 44 28 47 29 48 30 49 31 50 32 51 34 52 33 56 4 58
REMARK SMILES IDX 2 59 1 60 3 61
REMARK H PARENT 6 4 10 9 14 14 18 17 18 18 20 21 23 25 26 30 37 35 45 40 41 45
REMARK H PARENT 41 46 31 53 34 54 34 55 33 57
ROOT
ATOM      1  C   GLY A   3      20.037  10.101  -6.464  1.00  0.00     0.240 C 
ATOM      2  O   GLY A   3      20.171   9.204  -5.585  1.00  0.00    -0.273 OA
ATOM      3  N   LEU A   4      20.557   9.921  -7.773  1.00  0.00    -0.343 N 
ATOM      4  H   UNL     1      20.388  10.654  -8.499  1.00  0.00     0.164 HD
ENDROOT
BRANCH   1   5
ATOM      5  CA  GLY A   3      19.340  11.374  -6.149  1.00  0.00     0.216 C 
BRANCH   5   6
ATOM      6  N   GLY A   3      18.104  11.078  -5.463  1.00  0.00    -0.345 N 
ATOM      7  C   THR A   2      16.886  11.756  -5.739  1.00  0.00     0.245 C 
ATOM      8  O   THR A   2      16.888  12.788  -6.467  1.00  0.00    -0.273 OA
ATOM      9  H   UNL     1      18.210  10.594  -4.544  1.00  0.00     0.164 HD
BRANCH   7  10
ATOM     10  CA  THR A   2      15.633  11.288  -5.048  1.00  0.00     0.200 C 
BRANCH  10  11
ATOM     11  N   THR A   2      14.448  11.732  -5.770  1.00  0.00    -0.341 N 
ATOM     12  C   SER A   1      13.914  13.045  -5.636  1.00  0.00     0.240 C 
ATOM     13  O   SER A   1      14.451  13.861  -4.838  1.00  0.00    -0.273 OA
ATOM     14  H   UNL     1      13.877  11.009  -6.256  1.00  0.00     0.164 HD
BRANCH  12  15
ATOM     15  CA  SER A   1      12.655  13.411  -6.387  1.00  0.00     0.167 C 
BRANCH  15  16
ATOM     16  N   SER A   1      12.470  14.864  -6.379  1.00  0.00    -0.318 NA
ATOM     17  H   UNL     1      11.566  15.091  -6.853  1.00  0.00     0.119 HD
ATOM     18  H   UNL     1      12.339  15.177  -5.389  1.00  0.00     0.119 HD
ENDBRANCH  15  16
BRANCH  15  19
ATOM     19  CB  SER A   1      12.695  12.900  -7.847  1.00  0.00     0.184 C 
BRANCH  19  20
ATOM     20  OG  SER A   1      11.437  13.040  -8.447  1.00  0.00    -0.394 OA
ATOM     21  H   UNL     1      11.447  13.896  -8.950  1.00  0.00     0.210 HD
ENDBRANCH  19  20
ENDBRANCH  15  19
ENDBRANCH  12  15
ENDBRANCH  10  11
BRANCH  10  22
ATOM     22  CB  THR A   2      15.610   9.741  -4.914  1.00  0.00     0.143 C 
ATOM     23  CG2 THR A   2      14.423   9.264  -4.079  1.00  0.00     0.041 C 
BRANCH  22  24
ATOM     24  OG1 THR A   2      15.581   9.143  -6.186  1.00  0.00    -0.391 OA
ATOM     25  H   UNL     1      15.864   8.199  -6.070  1.00  0.00     0.211 HD
ENDBRANCH  22  24
ENDBRANCH  10  22
ENDBRANCH   7  10
ENDBRANCH   5   6
ENDBRANCH   1   5
BRANCH   3  26
ATOM     26  CA  LEU A   4      21.345   8.760  -8.136  1.00  0.00     0.171 C 
BRANCH  26  27
ATOM     27  C   LEU A   4      22.711   9.216  -8.518  1.00  0.00     0.243 C 
ATOM     28  N   ARG A   5      23.821   8.720  -7.784  1.00  0.00    -0.343 N 
ATOM     29  O   LEU A   4      22.874  10.032  -9.466  1.00  0.00    -0.273 OA
ATOM     30  H   UNL     1      23.666   8.029  -7.015  1.00  0.00     0.164 HD
BRANCH  28  31
ATOM     31  CA  ARG A   5      25.184   9.121  -8.073  1.00  0.00     0.171 C 
BRANCH  31  32
ATOM     32  C   ARG A   5      25.899   7.967  -8.685  1.00  0.00     0.243 C 
ATOM     33  N   ASN A   6      25.913   7.864 -10.102  1.00  0.00    -0.341 N 
ATOM     34  O   ARG A   5      26.447   7.087  -7.969  1.00  0.00    -0.273 OA
ATOM     35  H   UNL     1      25.489   8.647 -10.651  1.00  0.00     0.164 HD
BRANCH  33  36
ATOM     36  CA  ASN A   6      26.542   6.751 -10.804  1.00  0.00     0.201 C 
BRANCH  36  37
ATOM     37  C   ASN A   6      27.993   6.642 -10.416  1.00  0.00     0.326 C 
ATOM     38  O   ASN A   6      28.794   7.579 -10.677  1.00  0.00    -0.250 OA
BRANCH  37  39
ATOM     39  OXT ASN A   6      28.451   5.499  -9.768  1.00  0.00    -0.480 OA
ATOM     40  H   UNL     1      29.424   5.409  -9.499  1.00  0.00     0.296 HD
ENDBRANCH  37  39
ENDBRANCH  36  37
BRANCH  36  41
ATOM     41  CB  ASN A   6      26.424   6.947 -12.323  1.00  0.00     0.136 C 
BRANCH  41  42
ATOM     42  CG  ASN A   6      25.010   7.180 -12.773  1.00  0.00     0.220 C 
ATOM     43  ND2 ASN A   6      24.753   8.090 -13.833  1.00  0.00    -0.370 N 
ATOM     44  OD1 ASN A   6      24.053   6.558 -12.243  1.00  0.00    -0.275 OA
ATOM     45  H   UNL     1      25.533   8.600 -14.306  1.00  0.00     0.159 HD
ATOM     46  H   UNL     1      23.775   8.258 -14.156  1.00  0.00     0.159 HD
ENDBRANCH  41  42
ENDBRANCH  36  41
ENDBRANCH  33  36
ENDBRANCH  31  32
BRANCH  31  47
ATOM     47  CB  ARG A   5      25.863   9.604  -6.796  1.00  0.00     0.037 C 
BRANCH  47  48
ATOM     48  CG  ARG A   5      25.167  10.859  -6.270  1.00  0.00     0.024 C 
BRANCH  48  49
ATOM     49  CD  ARG A   5      25.842  11.390  -5.014  1.00  0.00     0.116 C 
BRANCH  49  50
ATOM     50  NE  ARG A   5      25.378  10.687  -3.820  1.00  0.00    -0.357 N 
ATOM     51  CZ  ARG A   5      25.470  11.282  -2.526  1.00  0.00     0.185 C 
ATOM     52  NH2 ARG A   5      26.109  12.546  -2.351  1.00  0.00    -0.370 N 
ATOM     53  H   UNL     1      24.900   9.761  -3.912  1.00  0.00     0.163 HD
ATOM     54  H   UNL     1      26.700  12.981  -3.092  1.00  0.00     0.159 HD
ATOM     55  H   UNL     1      26.083  13.023  -1.422  1.00  0.00     0.159 HD
BRANCH  51  56
ATOM     56  NH1 ARG A   5      24.956  10.671  -1.506  1.00  0.00    -0.270 NA
ATOM     57  H   UNL     1      24.999  11.075  -0.544  1.00  0.00     0.191 HD
ENDBRANCH  51  56
ENDBRANCH  49  50
ENDBRANCH  48  49
ENDBRANCH  47  48
ENDBRANCH  31  47
ENDBRANCH  28  31
ENDBRANCH  26  27
BRANCH  26  58
ATOM     58  CB  LEU A   4      20.654   7.998  -9.269  1.00  0.00     0.038 C 
BRANCH  58  59
ATOM     59  CG  LEU A   4      21.448   6.771  -9.767  1.00  0.00    -0.015 C 
ATOM     60  CD1 LEU A   4      21.762   5.778  -8.638  1.00  0.00     0.007 C 
ATOM     61  CD2 LEU A   4      20.662   6.067 -10.877  1.00  0.00     0.007 C 
ENDBRANCH  58  59
ENDBRANCH  26  58
ENDBRANCH   3  26
TORSDOF 26
