REMARK SMILES CC[C@H](C)[C@H](NC(=O)[C@@H](N)CO)C(=O)N[C@@H](CC(C)C)C(=O)NCC(=O)N[C@@H](CCCNC(=N)N)C(=O)N[C@@H](CC(N)=O)C(=O)O
REMARK SMILES IDX 21 1 22 2 23 3 16 5 15 6 13 7 14 8 5 10 6 11 7 12 8 13 9 15
REMARK SMILES IDX 10 16 11 19 12 20 3 22 4 23 2 24 1 25 17 26 18 27 19 28
REMARK SMILES IDX 20 29 24 30 25 31 27 32 26 33 28 35 36 36 38 37 37 38 39 40
REMARK SMILES IDX 44 41 45 42 46 43 40 45 41 46 42 47 43 48 29 51 30 52 31 53
REMARK SMILES IDX 32 54 33 55 35 56 34 60
REMARK H PARENT 23 4 15 9 6 14 10 17 10 18 12 21 27 34 38 39 46 44 42 49 42 50
REMARK H PARENT 32 57 35 58 35 59 34 61
ROOT
ATOM      1  C   LEU A   3      20.066  10.078  -6.447  1.00  0.00     0.243 C 
ATOM      2  O   LEU A   3      20.209   9.174  -5.579  1.00  0.00    -0.273 OA
ATOM      3  N   GLY A   4      20.562   9.907  -7.769  1.00  0.00    -0.345 N 
ATOM      4  H   UNL     1      20.392  10.651  -8.483  1.00  0.00     0.164 HD
ENDROOT
BRANCH   1   5
ATOM      5  CA  LEU A   3      19.330  11.333  -6.129  1.00  0.00     0.171 C 
BRANCH   5   6
ATOM      6  N   LEU A   3      18.083  11.021  -5.486  1.00  0.00    -0.343 N 
ATOM      7  C   ILE A   2      16.881  11.743  -5.728  1.00  0.00     0.243 C 
ATOM      8  O   ILE A   2      16.897  12.786  -6.442  1.00  0.00    -0.273 OA
ATOM      9  H   UNL     1      18.150  10.364  -4.687  1.00  0.00     0.164 HD
BRANCH   7  10
ATOM     10  CA  ILE A   2      15.621  11.274  -5.050  1.00  0.00     0.174 C 
BRANCH  10  11
ATOM     11  N   ILE A   2      14.441  11.731  -5.772  1.00  0.00    -0.343 N 
ATOM     12  C   SER A   1      13.915  13.046  -5.638  1.00  0.00     0.239 C 
ATOM     13  O   SER A   1      14.455  13.861  -4.839  1.00  0.00    -0.273 OA
ATOM     14  H   UNL     1      13.844  11.014  -6.233  1.00  0.00     0.164 HD
BRANCH  12  15
ATOM     15  CA  SER A   1      12.657  13.412  -6.385  1.00  0.00     0.167 C 
BRANCH  15  16
ATOM     16  N   SER A   1      12.470  14.865  -6.378  1.00  0.00    -0.318 NA
ATOM     17  H   UNL     1      11.584  15.092  -6.885  1.00  0.00     0.119 HD
ATOM     18  H   UNL     1      12.308  15.173  -5.391  1.00  0.00     0.119 HD
ENDBRANCH  15  16
BRANCH  15  19
ATOM     19  CB  SER A   1      12.695  12.903  -7.847  1.00  0.00     0.184 C 
BRANCH  19  20
ATOM     20  OG  SER A   1      11.438  13.039  -8.449  1.00  0.00    -0.394 OA
ATOM     21  H   UNL     1      10.860  12.327  -8.068  1.00  0.00     0.210 HD
ENDBRANCH  19  20
ENDBRANCH  15  19
ENDBRANCH  12  15
ENDBRANCH  10  11
BRANCH  10  22
ATOM     22  CB  ILE A   2      15.584   9.718  -4.901  1.00  0.00     0.018 C 
ATOM     23  CG1 ILE A   2      14.380   9.272  -4.071  1.00  0.00     0.010 C 
BRANCH  22  24
ATOM     24  CG2 ILE A   2      15.641   8.965  -6.261  1.00  0.00     0.002 C 
ATOM     25  CD1 ILE A   2      16.212   7.554  -6.122  1.00  0.00     0.004 C 
ENDBRANCH  22  24
ENDBRANCH  10  22
ENDBRANCH   7  10
ENDBRANCH   5   6
BRANCH   5  26
ATOM     26  CB  LEU A   3      20.155  12.338  -5.314  1.00  0.00     0.038 C 
BRANCH  26  27
ATOM     27  CG  LEU A   3      20.433  12.204  -3.790  1.00  0.00    -0.015 C 
ATOM     28  CD1 LEU A   3      21.822  11.747  -3.388  1.00  0.00     0.007 C 
ATOM     29  CD2 LEU A   3      19.302  11.892  -2.822  1.00  0.00     0.007 C 
ENDBRANCH  26  27
ENDBRANCH   5  26
ENDBRANCH   1   5
BRANCH   3  30
ATOM     30  CA  GLY A   4      21.332   8.753  -8.183  1.00  0.00     0.216 C 
BRANCH  30  31
ATOM     31  C   GLY A   4      22.704   9.202  -8.532  1.00  0.00     0.240 C 
ATOM     32  N   ARG A   5      23.808   8.707  -7.786  1.00  0.00    -0.343 N 
ATOM     33  O   GLY A   4      22.877  10.027  -9.470  1.00  0.00    -0.273 OA
ATOM     34  H   UNL     1      23.644   7.990  -7.042  1.00  0.00     0.164 HD
BRANCH  32  35
ATOM     35  CA  ARG A   5      25.174   9.114  -8.068  1.00  0.00     0.171 C 
BRANCH  35  36
ATOM     36  C   ARG A   5      25.896   7.966  -8.684  1.00  0.00     0.243 C 
ATOM     37  N   ASN A   6      25.915   7.866 -10.101  1.00  0.00    -0.341 N 
ATOM     38  O   ARG A   5      26.448   7.086  -7.969  1.00  0.00    -0.273 OA
ATOM     39  H   UNL     1      25.496   8.652 -10.650  1.00  0.00     0.164 HD
BRANCH  37  40
ATOM     40  CA  ASN A   6      26.543   6.752 -10.803  1.00  0.00     0.201 C 
BRANCH  40  41
ATOM     41  C   ASN A   6      27.993   6.642 -10.416  1.00  0.00     0.326 C 
ATOM     42  O   ASN A   6      28.795   7.579 -10.677  1.00  0.00    -0.250 OA
BRANCH  41  43
ATOM     43  OXT ASN A   6      28.452   5.499  -9.769  1.00  0.00    -0.480 OA
ATOM     44  H   UNL     1      29.425   5.409  -9.501  1.00  0.00     0.296 HD
ENDBRANCH  41  43
ENDBRANCH  40  41
BRANCH  40  45
ATOM     45  CB  ASN A   6      26.424   6.947 -12.323  1.00  0.00     0.136 C 
BRANCH  45  46
ATOM     46  CG  ASN A   6      25.010   7.182 -12.772  1.00  0.00     0.220 C 
ATOM     47  ND2 ASN A   6      24.754   8.089 -13.834  1.00  0.00    -0.370 N 
ATOM     48  OD1 ASN A   6      24.051   6.563 -12.238  1.00  0.00    -0.275 OA
ATOM     49  H   UNL     1      25.534   8.596 -14.309  1.00  0.00     0.159 HD
ATOM     50  H   UNL     1      23.775   8.257 -14.157  1.00  0.00     0.159 HD
ENDBRANCH  45  46
ENDBRANCH  40  45
ENDBRANCH  37  40
ENDBRANCH  35  36
BRANCH  35  51
ATOM     51  CB  ARG A   5      25.851   9.598  -6.791  1.00  0.00     0.037 C 
BRANCH  51  52
ATOM     52  CG  ARG A   5      25.161  10.858  -6.269  1.00  0.00     0.024 C 
BRANCH  52  53
ATOM     53  CD  ARG A   5      25.838  11.390  -5.014  1.00  0.00     0.116 C 
BRANCH  53  54
ATOM     54  NE  ARG A   5      25.375  10.687  -3.820  1.00  0.00    -0.357 N 
ATOM     55  CZ  ARG A   5      25.468  11.282  -2.526  1.00  0.00     0.185 C 
ATOM     56  NH2 ARG A   5      26.108  12.546  -2.352  1.00  0.00    -0.370 N 
ATOM     57  H   UNL     1      24.888   9.765  -3.911  1.00  0.00     0.163 HD
ATOM     58  H   UNL     1      26.697  12.982  -3.094  1.00  0.00     0.159 HD
ATOM     59  H   UNL     1      26.082  13.023  -1.423  1.00  0.00     0.159 HD
BRANCH  55  60
ATOM     60  NH1 ARG A   5      24.954  10.672  -1.506  1.00  0.00    -0.270 NA
ATOM     61  H   UNL     1      24.996  11.077  -0.544  1.00  0.00     0.191 HD
ENDBRANCH  55  60
ENDBRANCH  53  54
ENDBRANCH  52  53
ENDBRANCH  51  52
ENDBRANCH  35  51
ENDBRANCH  32  35
ENDBRANCH  30  31
ENDBRANCH   3  30
TORSDOF 26
