REMARK SMILES CC(C)C[C@H](NC(=O)[C@H](Cc1ccccc1)NC(=O)[C@@H](N)CO)C(=O)N[C@@H](Cc1c[nH]cn1)C(=O)N[C@@H](CCCNC(=N)N)C(=O)N[C@@H](CO)C(=O)O
REMARK SMILES IDX 24 1 25 2 26 3 5 5 6 6 7 7 8 8 9 10 17 11 18 12 19 13 20 15
REMARK SMILES IDX 21 16 22 19 23 20 10 22 11 23 12 24 16 25 13 26 15 27 14 28
REMARK SMILES IDX 4 29 2 30 1 31 3 32 27 33 34 34 36 35 35 36 37 38 45 39
REMARK SMILES IDX 47 40 46 41 48 43 51 44 52 45 53 46 49 48 50 49 38 51 39 52
REMARK SMILES IDX 40 53 41 54 42 55 44 56 43 60 28 62 29 63 33 64 30 65 32 66
REMARK SMILES IDX 31 67
REMARK H PARENT 26 4 6 9 17 14 21 17 21 18 23 21 36 37 47 42 53 47 50 50 41 57
REMARK H PARENT 44 58 44 59 43 61 31 68
ROOT
ATOM      1  C   LEU A   3      -1.284   0.977   0.665  1.00  0.00     0.243 C 
ATOM      2  O   LEU A   3      -1.678   0.592  -0.469  1.00  0.00    -0.273 OA
ATOM      3  N   HIS A   4      -0.042   1.688   0.791  1.00  0.00    -0.342 N 
ATOM      4  H   UNL     1       0.168   2.101   1.728  1.00  0.00     0.164 HD
ENDROOT
BRANCH   1   5
ATOM      5  CA  LEU A   3      -2.135   0.730   1.894  1.00  0.00     0.171 C 
BRANCH   5   6
ATOM      6  N   LEU A   3      -3.432   0.111   1.573  1.00  0.00    -0.343 N 
ATOM      7  C   PHE A   2      -4.434   0.760   0.775  1.00  0.00     0.243 C 
ATOM      8  O   PHE A   2      -4.170   1.842   0.183  1.00  0.00    -0.273 OA
ATOM      9  H   UNL     1      -3.729  -0.746   2.089  1.00  0.00     0.164 HD
BRANCH   7  10
ATOM     10  CA  PHE A   2      -5.814   0.152   0.664  1.00  0.00     0.175 C 
BRANCH  10  11
ATOM     11  N   PHE A   2      -6.738   1.062  -0.023  1.00  0.00    -0.343 N 
ATOM     12  C   SER A   1      -7.330   2.190   0.638  1.00  0.00     0.239 C 
ATOM     13  O   SER A   1      -6.982   2.492   1.812  1.00  0.00    -0.273 OA
ATOM     14  H   UNL     1      -6.975   0.900  -1.025  1.00  0.00     0.164 HD
BRANCH  12  15
ATOM     15  CA  SER A   1      -8.372   3.024  -0.061  1.00  0.00     0.167 C 
BRANCH  15  16
ATOM     16  N   SER A   1      -7.832   3.539  -1.319  1.00  0.00    -0.318 NA
ATOM     17  H   UNL     1      -8.531   4.198  -1.735  1.00  0.00     0.119 HD
ATOM     18  H   UNL     1      -6.990   4.122  -1.104  1.00  0.00     0.119 HD
ENDBRANCH  15  16
BRANCH  15  19
ATOM     19  CB  SER A   1      -9.631   2.181  -0.319  1.00  0.00     0.184 C 
BRANCH  19  20
ATOM     20  OG  SER A   1     -10.690   3.002  -0.735  1.00  0.00    -0.394 OA
ATOM     21  H   UNL     1     -10.685   3.000  -1.730  1.00  0.00     0.210 HD
ENDBRANCH  19  20
ENDBRANCH  15  19
ENDBRANCH  12  15
ENDBRANCH  10  11
BRANCH  10  22
ATOM     22  CB  PHE A   2      -5.801  -1.244  -0.005  1.00  0.00     0.070 C 
BRANCH  22  23
ATOM     23  CG  PHE A   2      -5.099  -1.285  -1.343  1.00  0.00    -0.045 A 
ATOM     24  CD1 PHE A   2      -3.720  -1.551  -1.411  1.00  0.00     0.004 A 
ATOM     25  CD2 PHE A   2      -5.816  -1.087  -2.537  1.00  0.00     0.004 A 
ATOM     26  CE1 PHE A   2      -3.066  -1.585  -2.646  1.00  0.00     0.000 A 
ATOM     27  CE2 PHE A   2      -5.158  -1.119  -3.770  1.00  0.00     0.000 A 
ATOM     28  CZ  PHE A   2      -3.785  -1.372  -3.825  1.00  0.00     0.000 A 
ENDBRANCH  22  23
ENDBRANCH  10  22
ENDBRANCH   7  10
ENDBRANCH   5   6
BRANCH   5  29
ATOM     29  CB  LEU A   3      -1.385  -0.076   2.988  1.00  0.00     0.038 C 
BRANCH  29  30
ATOM     30  CG  LEU A   3      -1.072  -1.565   2.665  1.00  0.00    -0.015 C 
ATOM     31  CD1 LEU A   3       0.012  -1.720   1.592  1.00  0.00     0.007 C 
ATOM     32  CD2 LEU A   3      -0.634  -2.285   3.949  1.00  0.00     0.007 C 
ENDBRANCH  29  30
ENDBRANCH   5  29
ENDBRANCH   1   5
BRANCH   3  33
ATOM     33  CA  HIS A   4       0.819   2.037  -0.352  1.00  0.00     0.177 C 
BRANCH  33  34
ATOM     34  C   HIS A   4       1.513   0.803  -0.918  1.00  0.00     0.243 C 
ATOM     35  N   ARG A   5       2.940   0.725  -1.098  1.00  0.00    -0.343 N 
ATOM     36  O   HIS A   4       0.802  -0.167  -1.288  1.00  0.00    -0.273 OA
ATOM     37  H   UNL     1       3.495   1.605  -1.153  1.00  0.00     0.164 HD
BRANCH  35  38
ATOM     38  CA  ARG A   5       3.611  -0.539  -1.435  1.00  0.00     0.171 C 
BRANCH  38  39
ATOM     39  C   ARG A   5       3.311  -1.605  -0.411  1.00  0.00     0.243 C 
ATOM     40  N   SER A   6       3.084  -2.958  -0.832  1.00  0.00    -0.339 N 
ATOM     41  O   ARG A   5       3.301  -1.309   0.816  1.00  0.00    -0.273 OA
ATOM     42  H   UNL     1       3.150  -3.171  -1.854  1.00  0.00     0.164 HD
BRANCH  40  43
ATOM     43  CA  SER A   6       3.017  -4.075   0.114  1.00  0.00     0.218 C 
BRANCH  43  44
ATOM     44  C   SER A   6       4.381  -4.673   0.319  1.00  0.00     0.328 C 
ATOM     45  O   SER A   6       5.246  -4.632  -0.599  1.00  0.00    -0.250 OA
BRANCH  44  46
ATOM     46  OXT SER A   6       4.672  -5.317   1.516  1.00  0.00    -0.480 OA
ATOM     47  H   UNL     1       5.579  -5.741   1.671  1.00  0.00     0.296 HD
ENDBRANCH  44  46
ENDBRANCH  43  44
BRANCH  43  48
ATOM     48  CB  SER A   6       2.016  -5.132  -0.373  1.00  0.00     0.193 C 
BRANCH  48  49
ATOM     49  OG  SER A   6       2.393  -5.662  -1.619  1.00  0.00    -0.394 OA
ATOM     50  H   UNL     1       3.036  -6.400  -1.442  1.00  0.00     0.210 HD
ENDBRANCH  48  49
ENDBRANCH  43  48
ENDBRANCH  40  43
ENDBRANCH  38  39
BRANCH  38  51
ATOM     51  CB  ARG A   5       5.133  -0.344  -1.603  1.00  0.00     0.037 C 
BRANCH  51  52
ATOM     52  CG  ARG A   5       5.854   0.039  -0.294  1.00  0.00     0.024 C 
BRANCH  52  53
ATOM     53  CD  ARG A   5       7.325   0.397  -0.532  1.00  0.00     0.116 C 
BRANCH  53  54
ATOM     54  NE  ARG A   5       7.463   1.698  -1.191  1.00  0.00    -0.357 N 
ATOM     55  CZ  ARG A   5       8.733   2.272  -1.542  1.00  0.00     0.185 C 
ATOM     56  NH2 ARG A   5       8.772   3.544  -2.190  1.00  0.00    -0.370 N 
ATOM     57  H   UNL     1       6.604   2.256  -1.404  1.00  0.00     0.163 HD
ATOM     58  H   UNL     1       7.891   4.067  -2.388  1.00  0.00     0.159 HD
ATOM     59  H   UNL     1       9.683   3.962  -2.481  1.00  0.00     0.159 HD
BRANCH  55  60
ATOM     60  NH1 ARG A   5       9.849   1.665  -1.278  1.00  0.00    -0.270 NA
ATOM     61  H   UNL     1       9.905   0.736  -0.807  1.00  0.00     0.191 HD
ENDBRANCH  55  60
ENDBRANCH  53  54
ENDBRANCH  52  53
ENDBRANCH  51  52
ENDBRANCH  38  51
ENDBRANCH  35  38
ENDBRANCH  33  34
BRANCH  33  62
ATOM     62  CB  HIS A   4       1.772   3.196   0.034  1.00  0.00     0.093 C 
BRANCH  62  63
ATOM     63  CG  HIS A   4       2.828   2.834   1.049  1.00  0.00     0.061 A 
ATOM     64  ND1 HIS A   4       2.709   1.872   1.987  1.00  0.00    -0.242 NA
ATOM     65  CD2 HIS A   4       4.044   3.465   1.182  1.00  0.00     0.107 A 
ATOM     66  CE1 HIS A   4       3.872   1.932   2.666  1.00  0.00     0.196 A 
ATOM     67  NE2 HIS A   4       4.699   2.883   2.197  1.00  0.00    -0.351 N 
ATOM     68  H   UNL     1       5.652   3.118   2.552  1.00  0.00     0.167 HD
ENDBRANCH  62  63
ENDBRANCH  33  62
ENDBRANCH   3  33
TORSDOF 28
