REMARK SMILES C[C@H](NC(=O)[C@H](CCCCN)NC(=O)[C@H](Cc1ccccc1)NC(=O)[C@@H](N)CO)C(=O)N[C@@H](CCCNC(=N)N)C(=O)N[C@@H](CC(N)=O)C(=O)O
REMARK SMILES IDX 4 1 5 2 3 3 6 5 12 6 13 7 14 8 15 10 23 11 24 12 25 13 26 15
REMARK SMILES IDX 27 16 28 19 29 20 16 22 17 23 18 24 22 25 19 26 21 27 20 28
REMARK SMILES IDX 7 29 8 30 9 31 10 32 11 33 2 36 1 37 30 38 32 39 31 40 33 42
REMARK SMILES IDX 41 43 43 44 42 45 44 47 49 48 50 49 51 50 45 52 46 53 47 54
REMARK SMILES IDX 48 55 34 58 35 59 36 60 37 61 38 62 40 63 39 67
REMARK H PARENT 3 4 12 9 23 14 27 17 27 18 29 21 11 34 11 35 32 41 43 46 51 51
REMARK H PARENT 47 56 47 57 37 64 40 65 40 66 39 68
ROOT
ATOM      1  C   LYS A   3       0.899  -0.750   0.965  1.00  0.00     0.243 C 
ATOM      2  O   LYS A   3       0.607  -1.194  -0.179  1.00  0.00    -0.273 OA
ATOM      3  N   ALA A   4       0.138  -1.158   2.112  1.00  0.00    -0.343 N 
ATOM      4  H   UNL     1       0.435  -0.813   3.054  1.00  0.00     0.164 HD
ENDROOT
BRANCH   1   5
ATOM      5  CA  LYS A   3       1.988   0.277   1.114  1.00  0.00     0.171 C 
BRANCH   5   6
ATOM      6  N   LYS A   3       3.030   0.064   0.105  1.00  0.00    -0.343 N 
ATOM      7  C   PHE A   2       4.099  -0.873   0.297  1.00  0.00     0.243 C 
ATOM      8  O   PHE A   2       4.072  -1.674   1.273  1.00  0.00    -0.273 OA
ATOM      9  H   UNL     1       2.977   0.583  -0.801  1.00  0.00     0.164 HD
BRANCH   7  10
ATOM     10  CA  PHE A   2       5.242  -0.922  -0.680  1.00  0.00     0.175 C 
BRANCH  10  11
ATOM     11  N   PHE A   2       6.516  -1.005   0.044  1.00  0.00    -0.343 N 
ATOM     12  C   SER A   1       7.644  -0.169  -0.264  1.00  0.00     0.239 C 
ATOM     13  O   SER A   1       7.553   0.722  -1.152  1.00  0.00    -0.273 OA
ATOM     14  H   UNL     1       6.646  -1.784   0.729  1.00  0.00     0.164 HD
BRANCH  12  15
ATOM     15  CA  SER A   1       8.956  -0.376   0.455  1.00  0.00     0.167 C 
BRANCH  15  16
ATOM     16  N   SER A   1       9.975  -0.874  -0.466  1.00  0.00    -0.318 NA
ATOM     17  H   UNL     1       9.669  -1.804  -0.835  1.00  0.00     0.119 HD
ATOM     18  H   UNL     1      10.062  -0.227  -1.285  1.00  0.00     0.119 HD
ENDBRANCH  15  16
BRANCH  15  19
ATOM     19  CB  SER A   1       9.426   0.929   1.114  1.00  0.00     0.184 C 
BRANCH  19  20
ATOM     20  OG  SER A   1      10.615   0.718   1.829  1.00  0.00    -0.394 OA
ATOM     21  H   UNL     1      10.367   0.219   2.649  1.00  0.00     0.210 HD
ENDBRANCH  19  20
ENDBRANCH  15  19
ENDBRANCH  12  15
ENDBRANCH  10  11
BRANCH  10  22
ATOM     22  CB  PHE A   2       5.084  -2.122  -1.628  1.00  0.00     0.070 C 
BRANCH  22  23
ATOM     23  CG  PHE A   2       6.167  -2.125  -2.677  1.00  0.00    -0.045 A 
ATOM     24  CD1 PHE A   2       6.066  -1.282  -3.797  1.00  0.00     0.004 A 
ATOM     25  CD2 PHE A   2       7.320  -2.911  -2.508  1.00  0.00     0.004 A 
ATOM     26  CE1 PHE A   2       7.097  -1.239  -4.741  1.00  0.00     0.000 A 
ATOM     27  CE2 PHE A   2       8.350  -2.860  -3.453  1.00  0.00     0.000 A 
ATOM     28  CZ  PHE A   2       8.238  -2.026  -4.569  1.00  0.00     0.000 A 
ENDBRANCH  22  23
ENDBRANCH  10  22
ENDBRANCH   7  10
ENDBRANCH   5   6
BRANCH   5  29
ATOM     29  CB  LYS A   3       1.385   1.686   0.982  1.00  0.00     0.035 C 
BRANCH  29  30
ATOM     30  CG  LYS A   3       2.429   2.779   1.258  1.00  0.00     0.004 C 
BRANCH  30  31
ATOM     31  CD  LYS A   3       1.816   4.189   1.320  1.00  0.00     0.015 C 
BRANCH  31  32
ATOM     32  CE  LYS A   3       1.338   4.714  -0.044  1.00  0.00     0.077 C 
BRANCH  32  33
ATOM     33  NZ  LYS A   3       0.020   4.180  -0.377  1.00  0.00    -0.330 NA
ATOM     34  H   UNL     1      -0.687   4.631   0.247  1.00  0.00     0.118 HD
ATOM     35  H   UNL     1      -0.210   4.483  -1.350  1.00  0.00     0.118 HD
ENDBRANCH  32  33
ENDBRANCH  31  32
ENDBRANCH  30  31
ENDBRANCH  29  30
ENDBRANCH   5  29
ENDBRANCH   1   5
BRANCH   3  36
ATOM     36  CA  ALA A   4      -1.114  -1.911   1.988  1.00  0.00     0.168 C 
ATOM     37  CB  ALA A   4      -1.542  -2.472   3.347  1.00  0.00     0.041 C 
BRANCH  36  38
ATOM     38  C   ALA A   4      -2.200  -1.024   1.442  1.00  0.00     0.242 C 
ATOM     39  N   ARG A   5      -3.226  -1.577   0.604  1.00  0.00    -0.343 N 
ATOM     40  O   ALA A   4      -2.229   0.195   1.762  1.00  0.00    -0.273 OA
ATOM     41  H   UNL     1      -3.181  -2.593   0.370  1.00  0.00     0.164 HD
BRANCH  39  42
ATOM     42  CA  ARG A   5      -4.278  -0.742   0.013  1.00  0.00     0.171 C 
BRANCH  42  43
ATOM     43  C   ARG A   5      -5.213  -0.270   1.098  1.00  0.00     0.243 C 
ATOM     44  N   ASN A   6      -6.071  -1.197   1.783  1.00  0.00    -0.341 N 
ATOM     45  O   ARG A   5      -5.195   0.945   1.438  1.00  0.00    -0.273 OA
ATOM     46  H   UNL     1      -5.947  -2.218   1.601  1.00  0.00     0.164 HD
BRANCH  44  47
ATOM     47  CA  ASN A   6      -7.092  -0.757   2.739  1.00  0.00     0.201 C 
BRANCH  47  48
ATOM     48  C   ASN A   6      -7.590  -1.935   3.535  1.00  0.00     0.326 C 
ATOM     49  O   ASN A   6      -8.293  -2.823   2.984  1.00  0.00    -0.250 OA
BRANCH  48  50
ATOM     50  OXT ASN A   6      -7.257  -2.052   4.881  1.00  0.00    -0.480 OA
ATOM     51  H   UNL     1      -7.582  -2.839   5.430  1.00  0.00     0.296 HD
ENDBRANCH  48  50
ENDBRANCH  47  48
BRANCH  47  52
ATOM     52  CB  ASN A   6      -8.250  -0.057   1.997  1.00  0.00     0.136 C 
BRANCH  52  53
ATOM     53  CG  ASN A   6      -9.248   0.525   2.954  1.00  0.00     0.220 C 
ATOM     54  ND2 ASN A   6      -8.974   1.754   3.628  1.00  0.00    -0.370 N 
ATOM     55  OD1 ASN A   6     -10.320  -0.092   3.194  1.00  0.00    -0.275 OA
ATOM     56  H   UNL     1      -9.664   2.156   4.302  1.00  0.00     0.159 HD
ATOM     57  H   UNL     1      -8.080   2.265   3.454  1.00  0.00     0.159 HD
ENDBRANCH  52  53
ENDBRANCH  47  52
ENDBRANCH  44  47
ENDBRANCH  42  43
BRANCH  42  58
ATOM     58  CB  ARG A   5      -5.022  -1.524  -1.096  1.00  0.00     0.037 C 
BRANCH  58  59
ATOM     59  CG  ARG A   5      -6.181  -0.754  -1.756  1.00  0.00     0.024 C 
BRANCH  59  60
ATOM     60  CD  ARG A   5      -5.709   0.475  -2.548  1.00  0.00     0.116 C 
BRANCH  60  61
ATOM     61  NE  ARG A   5      -6.825   1.091  -3.272  1.00  0.00    -0.357 N 
ATOM     62  CZ  ARG A   5      -6.682   2.262  -4.095  1.00  0.00     0.185 C 
ATOM     63  NH2 ARG A   5      -7.831   2.804  -4.747  1.00  0.00    -0.370 N 
ATOM     64  H   UNL     1      -7.779   0.668  -3.190  1.00  0.00     0.163 HD
ATOM     65  H   UNL     1      -7.750   3.661  -5.337  1.00  0.00     0.159 HD
ATOM     66  H   UNL     1      -8.767   2.357  -4.632  1.00  0.00     0.159 HD
BRANCH  62  67
ATOM     67  NH1 ARG A   5      -5.532   2.839  -4.260  1.00  0.00    -0.270 NA
ATOM     68  H   UNL     1      -4.650   2.503  -3.818  1.00  0.00     0.191 HD
ENDBRANCH  62  67
ENDBRANCH  60  61
ENDBRANCH  59  60
ENDBRANCH  58  59
ENDBRANCH  42  58
ENDBRANCH  39  42
ENDBRANCH  36  38
ENDBRANCH   3  36
TORSDOF 29
