REMARK SMILES CC(C)C[C@H](NC(=O)[C@H](CCCNC(=N)N)NC(=O)[C@@H](N)CO)C(=O)N[C@@H](C)C(=O)N[C@@H](CCCNC(=N)N)C(=O)N[C@@H](CC(N)=O)C(=O)O
REMARK SMILES IDX 24 1 25 2 26 3 5 5 6 6 7 7 8 8 9 10 17 11 18 12 19 13 20 15
REMARK SMILES IDX 21 16 22 19 23 20 10 22 11 23 12 24 13 25 14 26 16 27 15 31
REMARK SMILES IDX 4 33 2 34 1 35 3 36 27 37 28 38 29 39 31 40 30 41 32 43
REMARK SMILES IDX 40 44 42 45 41 46 43 48 48 49 49 50 50 51 44 53 45 54 46 55
REMARK SMILES IDX 47 56 33 59 34 60 35 61 36 62 37 63 39 64 38 68
REMARK H PARENT 26 4 6 9 17 14 21 17 21 18 23 21 13 28 16 29 16 30 15 32 31 42
REMARK H PARENT 42 47 50 52 46 57 46 58 36 65 39 66 39 67 38 69
ROOT
ATOM      1  C   LEU A   3      -1.271   0.053  -0.200  1.00  0.00     0.243 C 
ATOM      2  O   LEU A   3      -1.641   0.240   0.993  1.00  0.00    -0.273 OA
ATOM      3  N   ALA A   4      -0.098  -0.729  -0.476  1.00  0.00    -0.343 N 
ATOM      4  H   UNL     1       0.131  -0.949  -1.472  1.00  0.00     0.164 HD
ENDROOT
BRANCH   1   5
ATOM      5  CA  LEU A   3      -2.023   0.711  -1.333  1.00  0.00     0.171 C 
BRANCH   5   6
ATOM      6  N   LEU A   3      -3.417   0.928  -0.930  1.00  0.00    -0.343 N 
ATOM      7  C   ARG A   2      -4.503   0.117  -1.415  1.00  0.00     0.243 C 
ATOM      8  O   ARG A   2      -4.367  -0.540  -2.484  1.00  0.00    -0.273 OA
ATOM      9  H   UNL     1      -3.587   1.596  -0.145  1.00  0.00     0.164 HD
BRANCH   7  10
ATOM     10  CA  ARG A   2      -5.783  -0.039  -0.625  1.00  0.00     0.171 C 
BRANCH  10  11
ATOM     11  N   ARG A   2      -5.546  -0.952   0.496  1.00  0.00    -0.343 N 
ATOM     12  C   SER A   1      -5.437  -2.374   0.311  1.00  0.00     0.239 C 
ATOM     13  O   SER A   1      -5.387  -2.858  -0.851  1.00  0.00    -0.273 OA
ATOM     14  H   UNL     1      -5.483  -0.562   1.463  1.00  0.00     0.164 HD
BRANCH  12  15
ATOM     15  CA  SER A   1      -5.381  -3.309   1.497  1.00  0.00     0.167 C 
BRANCH  15  16
ATOM     16  N   SER A   1      -4.132  -3.128   2.245  1.00  0.00    -0.318 NA
ATOM     17  H   UNL     1      -3.999  -2.122   2.489  1.00  0.00     0.119 HD
ATOM     18  H   UNL     1      -3.341  -3.397   1.615  1.00  0.00     0.119 HD
ENDBRANCH  15  16
BRANCH  15  19
ATOM     19  CB  SER A   1      -6.587  -3.125   2.433  1.00  0.00     0.184 C 
BRANCH  19  20
ATOM     20  OG  SER A   1      -7.788  -3.391   1.757  1.00  0.00    -0.394 OA
ATOM     21  H   UNL     1      -8.063  -2.544   1.319  1.00  0.00     0.210 HD
ENDBRANCH  19  20
ENDBRANCH  15  19
ENDBRANCH  12  15
ENDBRANCH  10  11
BRANCH  10  22
ATOM     22  CB  ARG A   2      -6.355   1.296  -0.105  1.00  0.00     0.037 C 
BRANCH  22  23
ATOM     23  CG  ARG A   2      -6.713   2.273  -1.238  1.00  0.00     0.024 C 
BRANCH  23  24
ATOM     24  CD  ARG A   2      -7.179   3.631  -0.703  1.00  0.00     0.116 C 
BRANCH  24  25
ATOM     25  NE  ARG A   2      -8.419   3.501   0.066  1.00  0.00    -0.357 N 
ATOM     26  CZ  ARG A   2      -8.527   3.504   1.505  1.00  0.00     0.185 C 
ATOM     27  NH2 ARG A   2      -9.821   3.422   2.103  1.00  0.00    -0.370 N 
ATOM     28  H   UNL     1      -9.295   3.340  -0.477  1.00  0.00     0.163 HD
ATOM     29  H   UNL     1      -9.928   3.358   3.144  1.00  0.00     0.159 HD
ATOM     30  H   UNL     1     -10.677   3.374   1.508  1.00  0.00     0.159 HD
BRANCH  26  31
ATOM     31  NH1 ARG A   2      -7.484   3.547   2.278  1.00  0.00    -0.270 NA
ATOM     32  H   UNL     1      -6.498   3.589   1.946  1.00  0.00     0.191 HD
ENDBRANCH  26  31
ENDBRANCH  24  25
ENDBRANCH  23  24
ENDBRANCH  22  23
ENDBRANCH  10  22
ENDBRANCH   7  10
ENDBRANCH   5   6
BRANCH   5  33
ATOM     33  CB  LEU A   3      -1.339   2.048  -1.702  1.00  0.00     0.038 C 
BRANCH  33  34
ATOM     34  CG  LEU A   3      -1.723   2.655  -3.077  1.00  0.00    -0.015 C 
ATOM     35  CD1 LEU A   3      -3.196   3.067  -3.161  1.00  0.00     0.007 C 
ATOM     36  CD2 LEU A   3      -1.342   1.747  -4.256  1.00  0.00     0.007 C 
ENDBRANCH  33  34
ENDBRANCH   5  33
ENDBRANCH   1   5
BRANCH   3  37
ATOM     37  CA  ALA A   4       0.704  -1.358   0.578  1.00  0.00     0.168 C 
ATOM     38  CB  ALA A   4       0.342  -2.839   0.703  1.00  0.00     0.041 C 
BRANCH  37  39
ATOM     39  C   ALA A   4       2.169  -1.200   0.277  1.00  0.00     0.242 C 
ATOM     40  N   ARG A   5       3.073  -0.768   1.307  1.00  0.00    -0.343 N 
ATOM     41  O   ALA A   4       2.607  -1.484  -0.870  1.00  0.00    -0.273 OA
ATOM     42  H   UNL     1       2.689  -0.555   2.253  1.00  0.00     0.164 HD
BRANCH  40  43
ATOM     43  CA  ARG A   5       4.518  -0.658   1.075  1.00  0.00     0.171 C 
BRANCH  43  44
ATOM     44  C   ARG A   5       5.102  -2.036   0.879  1.00  0.00     0.243 C 
ATOM     45  N   ASN A   6       6.029  -2.275  -0.193  1.00  0.00    -0.341 N 
ATOM     46  O   ARG A   5       4.790  -2.966   1.671  1.00  0.00    -0.273 OA
ATOM     47  H   UNL     1       6.218  -1.492  -0.856  1.00  0.00     0.164 HD
BRANCH  45  48
ATOM     48  CA  ASN A   6       6.603  -3.602  -0.458  1.00  0.00     0.201 C 
BRANCH  48  49
ATOM     49  C   ASN A   6       7.437  -4.084   0.700  1.00  0.00     0.326 C 
ATOM     50  O   ASN A   6       8.077  -3.266   1.416  1.00  0.00    -0.250 OA
BRANCH  49  51
ATOM     51  OXT ASN A   6       7.520  -5.449   0.966  1.00  0.00    -0.480 OA
ATOM     52  H   UNL     1       8.066  -5.792   1.744  1.00  0.00     0.296 HD
ENDBRANCH  49  51
ENDBRANCH  48  49
BRANCH  48  53
ATOM     53  CB  ASN A   6       7.411  -3.613  -1.774  1.00  0.00     0.136 C 
BRANCH  53  54
ATOM     54  CG  ASN A   6       8.668  -2.777  -1.757  1.00  0.00     0.220 C 
ATOM     55  ND2 ASN A   6       9.728  -3.080  -2.665  1.00  0.00    -0.370 N 
ATOM     56  OD1 ASN A   6       8.775  -1.776  -0.993  1.00  0.00    -0.275 OA
ATOM     57  H   UNL     1       9.641  -3.872  -3.344  1.00  0.00     0.159 HD
ATOM     58  H   UNL     1      10.589  -2.490  -2.684  1.00  0.00     0.159 HD
ENDBRANCH  53  54
ENDBRANCH  48  53
ENDBRANCH  45  48
ENDBRANCH  43  44
BRANCH  43  59
ATOM     59  CB  ARG A   5       5.192   0.062   2.263  1.00  0.00     0.037 C 
BRANCH  59  60
ATOM     60  CG  ARG A   5       6.716   0.245   2.121  1.00  0.00     0.024 C 
BRANCH  60  61
ATOM     61  CD  ARG A   5       7.136   1.179   0.976  1.00  0.00     0.116 C 
BRANCH  61  62
ATOM     62  NE  ARG A   5       6.600   2.528   1.160  1.00  0.00    -0.357 N 
ATOM     63  CZ  ARG A   5       7.144   3.471   2.095  1.00  0.00     0.185 C 
ATOM     64  NH2 ARG A   5       6.577   4.781   2.182  1.00  0.00    -0.370 N 
ATOM     65  H   UNL     1       5.835   2.845   0.522  1.00  0.00     0.163 HD
ATOM     66  H   UNL     1       5.773   5.047   1.573  1.00  0.00     0.159 HD
ATOM     67  H   UNL     1       6.961   5.491   2.846  1.00  0.00     0.159 HD
BRANCH  63  68
ATOM     68  NH1 ARG A   5       8.156   3.152   2.840  1.00  0.00    -0.270 NA
ATOM     69  H   UNL     1       8.569   3.827   3.521  1.00  0.00     0.191 HD
ENDBRANCH  63  68
ENDBRANCH  61  62
ENDBRANCH  60  61
ENDBRANCH  59  60
ENDBRANCH  43  59
ENDBRANCH  40  43
ENDBRANCH  37  39
ENDBRANCH   3  37
TORSDOF 29
