REMARK SMILES CC[C@H](C)[C@H](NC(=O)[C@H](Cc1ccccc1)NC(=O)[C@@H](N)CO)C(=O)N[C@@H](Cc1c[nH]cn1)C(=O)N[C@@H](CCCNC(=N)N)C(=O)N[C@@H](CC(N)=O)C(=O)O
REMARK SMILES IDX 24 1 25 2 26 3 5 5 6 6 7 7 8 8 9 10 17 11 18 12 19 13 20 15
REMARK SMILES IDX 21 16 22 19 23 20 10 22 11 23 12 24 16 25 13 26 15 27 14 28
REMARK SMILES IDX 3 29 4 30 2 31 1 32 27 33 34 34 36 35 35 36 37 38 45 39
REMARK SMILES IDX 47 40 46 41 48 43 53 44 54 45 55 46 49 48 50 49 51 50 52 51
REMARK SMILES IDX 38 54 39 55 40 56 41 57 42 58 44 59 43 63 28 65 29 66 33 67
REMARK SMILES IDX 30 68 32 69 31 70
REMARK H PARENT 26 4 6 9 17 14 21 17 21 18 23 21 36 37 47 42 55 47 51 52 51 53
REMARK H PARENT 41 60 44 61 44 62 43 64 31 71
ROOT
ATOM      1  C   ILE A   3      20.036  10.079  -6.474  1.00  0.00     0.243 C 
ATOM      2  O   ILE A   3      20.150   9.159  -5.617  1.00  0.00    -0.273 OA
ATOM      3  N   HIS A   4      20.562   9.911  -7.781  1.00  0.00    -0.342 N 
ATOM      4  H   UNL     1      20.404  10.654  -8.500  1.00  0.00     0.164 HD
ENDROOT
BRANCH   1   5
ATOM      5  CA  ILE A   3      19.338  11.359  -6.142  1.00  0.00     0.174 C 
BRANCH   5   6
ATOM      6  N   ILE A   3      18.088  11.053  -5.494  1.00  0.00    -0.342 N 
ATOM      7  C   PHE A   2      16.883  11.747  -5.775  1.00  0.00     0.243 C 
ATOM      8  O   PHE A   2      16.894  12.784  -6.494  1.00  0.00    -0.273 OA
ATOM      9  H   UNL     1      18.166  10.524  -4.601  1.00  0.00     0.164 HD
BRANCH   7  10
ATOM     10  CA  PHE A   2      15.650  11.313  -5.059  1.00  0.00     0.175 C 
BRANCH  10  11
ATOM     11  N   PHE A   2      14.452  11.740  -5.769  1.00  0.00    -0.343 N 
ATOM     12  C   SER A   1      13.913  13.050  -5.637  1.00  0.00     0.239 C 
ATOM     13  O   SER A   1      14.442  13.870  -4.836  1.00  0.00    -0.273 OA
ATOM     14  H   UNL     1      13.867  11.000  -6.214  1.00  0.00     0.164 HD
BRANCH  12  15
ATOM     15  CA  SER A   1      12.660  13.412  -6.390  1.00  0.00     0.167 C 
BRANCH  15  16
ATOM     16  N   SER A   1      12.475  14.864  -6.375  1.00  0.00    -0.318 NA
ATOM     17  H   UNL     1      11.521  15.091  -6.740  1.00  0.00     0.119 HD
ATOM     18  H   UNL     1      13.175  15.315  -7.009  1.00  0.00     0.119 HD
ENDBRANCH  15  16
BRANCH  15  19
ATOM     19  CB  SER A   1      12.688  12.879  -7.844  1.00  0.00     0.184 C 
BRANCH  19  20
ATOM     20  OG  SER A   1      11.436  13.047  -8.450  1.00  0.00    -0.394 OA
ATOM     21  H   UNL     1      11.445  13.936  -8.891  1.00  0.00     0.210 HD
ENDBRANCH  19  20
ENDBRANCH  15  19
ENDBRANCH  12  15
ENDBRANCH  10  11
BRANCH  10  22
ATOM     22  CB  PHE A   2      15.613   9.774  -4.891  1.00  0.00     0.070 C 
BRANCH  22  23
ATOM     23  CG  PHE A   2      14.445   9.289  -4.089  1.00  0.00    -0.045 A 
ATOM     24  CD1 PHE A   2      13.904  10.046  -3.033  1.00  0.00     0.004 A 
ATOM     25  CD2 PHE A   2      13.969   7.989  -4.310  1.00  0.00     0.004 A 
ATOM     26  CE1 PHE A   2      12.869   9.536  -2.260  1.00  0.00     0.000 A 
ATOM     27  CE2 PHE A   2      12.940   7.477  -3.521  1.00  0.00     0.000 A 
ATOM     28  CZ  PHE A   2      12.386   8.252  -2.502  1.00  0.00     0.000 A 
ENDBRANCH  22  23
ENDBRANCH  10  22
ENDBRANCH   7  10
ENDBRANCH   5   6
BRANCH   5  29
ATOM     29  CB  ILE A   3      20.209  12.260  -5.241  1.00  0.00     0.018 C 
ATOM     30  CG1 ILE A   3      19.652  13.693  -5.178  1.00  0.00     0.010 C 
BRANCH  29  31
ATOM     31  CG2 ILE A   3      20.433  11.699  -3.810  1.00  0.00     0.002 C 
ATOM     32  CD1 ILE A   3      21.818  12.069  -3.293  1.00  0.00     0.004 C 
ENDBRANCH  29  31
ENDBRANCH   5  29
ENDBRANCH   1   5
BRANCH   3  33
ATOM     33  CA  HIS A   4      21.347   8.747  -8.151  1.00  0.00     0.177 C 
BRANCH  33  34
ATOM     34  C   HIS A   4      22.713   9.206  -8.527  1.00  0.00     0.243 C 
ATOM     35  N   ARG A   5      23.820   8.712  -7.789  1.00  0.00    -0.343 N 
ATOM     36  O   HIS A   4      22.878  10.030  -9.468  1.00  0.00    -0.273 OA
ATOM     37  H   UNL     1      23.665   7.997  -7.041  1.00  0.00     0.164 HD
BRANCH  35  38
ATOM     38  CA  ARG A   5      25.184   9.119  -8.072  1.00  0.00     0.171 C 
BRANCH  38  39
ATOM     39  C   ARG A   5      25.901   7.967  -8.686  1.00  0.00     0.243 C 
ATOM     40  N   ASN A   6      25.914   7.864 -10.103  1.00  0.00    -0.341 N 
ATOM     41  O   ARG A   5      26.449   7.086  -7.970  1.00  0.00    -0.273 OA
ATOM     42  H   UNL     1      25.490   8.648 -10.651  1.00  0.00     0.164 HD
BRANCH  40  43
ATOM     43  CA  ASN A   6      26.543   6.751 -10.805  1.00  0.00     0.201 C 
BRANCH  43  44
ATOM     44  C   ASN A   6      27.993   6.642 -10.415  1.00  0.00     0.326 C 
ATOM     45  O   ASN A   6      28.795   7.578 -10.676  1.00  0.00    -0.250 OA
BRANCH  44  46
ATOM     46  OXT ASN A   6      28.451   5.498  -9.768  1.00  0.00    -0.480 OA
ATOM     47  H   UNL     1      29.423   5.408  -9.498  1.00  0.00     0.296 HD
ENDBRANCH  44  46
ENDBRANCH  43  44
BRANCH  43  48
ATOM     48  CB  ASN A   6      26.428   6.949 -12.324  1.00  0.00     0.136 C 
BRANCH  48  49
ATOM     49  CG  ASN A   6      25.015   7.185 -12.776  1.00  0.00     0.220 C 
ATOM     50  ND2 ASN A   6      24.759   8.093 -13.837  1.00  0.00    -0.370 N 
ATOM     51  OD1 ASN A   6      24.058   6.566 -12.244  1.00  0.00    -0.275 OA
ATOM     52  H   UNL     1      23.780   8.261 -14.160  1.00  0.00     0.159 HD
ATOM     53  H   UNL     1      25.538   8.601 -14.311  1.00  0.00     0.159 HD
ENDBRANCH  48  49
ENDBRANCH  43  48
ENDBRANCH  40  43
ENDBRANCH  38  39
BRANCH  38  54
ATOM     54  CB  ARG A   5      25.859   9.602  -6.794  1.00  0.00     0.037 C 
BRANCH  54  55
ATOM     55  CG  ARG A   5      25.164  10.859  -6.272  1.00  0.00     0.024 C 
BRANCH  55  56
ATOM     56  CD  ARG A   5      25.838  11.391  -5.015  1.00  0.00     0.116 C 
BRANCH  56  57
ATOM     57  NE  ARG A   5      25.378  10.684  -3.823  1.00  0.00    -0.357 N 
ATOM     58  CZ  ARG A   5      25.468  11.279  -2.527  1.00  0.00     0.185 C 
ATOM     59  NH2 ARG A   5      26.105  12.541  -2.350  1.00  0.00    -0.370 N 
ATOM     60  H   UNL     1      24.900   9.759  -3.921  1.00  0.00     0.163 HD
ATOM     61  H   UNL     1      26.691  12.983  -3.091  1.00  0.00     0.159 HD
ATOM     62  H   UNL     1      26.081  13.008  -1.416  1.00  0.00     0.159 HD
BRANCH  58  63
ATOM     63  NH1 ARG A   5      24.957  10.679  -1.500  1.00  0.00    -0.270 NA
ATOM     64  H   UNL     1      24.474   9.757  -1.584  1.00  0.00     0.191 HD
ENDBRANCH  58  63
ENDBRANCH  56  57
ENDBRANCH  55  56
ENDBRANCH  54  55
ENDBRANCH  38  54
ENDBRANCH  35  38
ENDBRANCH  33  34
BRANCH  33  65
ATOM     65  CB  HIS A   4      20.661   7.998  -9.296  1.00  0.00     0.093 C 
BRANCH  65  66
ATOM     66  CG  HIS A   4      21.400   6.763  -9.745  1.00  0.00     0.061 A 
ATOM     67  ND1 HIS A   4      21.244   6.228 -10.973  1.00  0.00    -0.242 NA
ATOM     68  CD2 HIS A   4      22.112   5.884  -8.951  1.00  0.00     0.107 A 
ATOM     69  CE1 HIS A   4      21.897   5.049 -10.908  1.00  0.00     0.196 A 
ATOM     70  NE2 HIS A   4      22.435   4.818  -9.697  1.00  0.00    -0.351 N 
ATOM     71  H   UNL     1      22.967   3.973  -9.393  1.00  0.00     0.167 HD
ENDBRANCH  65  66
ENDBRANCH  33  65
ENDBRANCH   3  33
TORSDOF 28
