REMARK SMILES CC(C)C[C@H](NC(=O)[C@H](Cc1ccccc1)NC(=O)[C@@H](N)CO)C(=O)N[C@@H](Cc1c[nH]cn1)C(=O)NCC(=O)N[C@@H](CC(N)=O)C(=O)O
REMARK SMILES IDX 24 1 25 2 26 3 5 5 6 6 7 7 8 8 9 10 17 11 18 12 19 13 20 15
REMARK SMILES IDX 21 16 22 19 23 20 10 22 11 23 12 24 16 25 13 26 15 27 14 28
REMARK SMILES IDX 4 29 2 30 1 31 3 32 27 33 34 34 36 35 35 36 37 38 38 39
REMARK SMILES IDX 40 40 39 41 41 43 46 44 47 45 48 46 42 48 43 49 44 50 45 51
REMARK SMILES IDX 28 54 29 55 33 56 30 57 32 58 31 59
REMARK H PARENT 26 4 6 9 17 14 21 17 21 18 23 21 36 37 40 42 48 47 44 52 44 53
REMARK H PARENT 31 60
ROOT
ATOM      1  C   LEU A   3      20.055  10.081  -6.478  1.00  0.00     0.243 C 
ATOM      2  O   LEU A   3      20.165   9.158  -5.625  1.00  0.00    -0.273 OA
ATOM      3  N   HIS A   4      20.574   9.912  -7.787  1.00  0.00    -0.342 N 
ATOM      4  H   UNL     1      20.413  10.654  -8.506  1.00  0.00     0.164 HD
ENDROOT
BRANCH   1   5
ATOM      5  CA  LEU A   3      19.341  11.352  -6.149  1.00  0.00     0.171 C 
BRANCH   5   6
ATOM      6  N   LEU A   3      18.083  11.018  -5.540  1.00  0.00    -0.343 N 
ATOM      7  C   PHE A   2      16.887  11.744  -5.776  1.00  0.00     0.243 C 
ATOM      8  O   PHE A   2      16.906  12.796  -6.474  1.00  0.00    -0.273 OA
ATOM      9  H   UNL     1      18.156  10.384  -4.721  1.00  0.00     0.164 HD
BRANCH   7  10
ATOM     10  CA  PHE A   2      15.653  11.312  -5.056  1.00  0.00     0.175 C 
BRANCH  10  11
ATOM     11  N   PHE A   2      14.457  11.739  -5.768  1.00  0.00    -0.343 N 
ATOM     12  C   SER A   1      13.917  13.048  -5.632  1.00  0.00     0.239 C 
ATOM     13  O   SER A   1      14.448  13.866  -4.831  1.00  0.00    -0.273 OA
ATOM     14  H   UNL     1      13.875  11.000  -6.220  1.00  0.00     0.164 HD
BRANCH  12  15
ATOM     15  CA  SER A   1      12.661  13.412  -6.387  1.00  0.00     0.167 C 
BRANCH  15  16
ATOM     16  N   SER A   1      12.457  14.862  -6.397  1.00  0.00    -0.318 NA
ATOM     17  H   UNL     1      13.318  15.336  -6.757  1.00  0.00     0.119 HD
ATOM     18  H   UNL     1      12.292  15.192  -5.418  1.00  0.00     0.119 HD
ENDBRANCH  15  16
BRANCH  15  19
ATOM     19  CB  SER A   1      12.690  12.888  -7.841  1.00  0.00     0.184 C 
BRANCH  19  20
ATOM     20  OG  SER A   1      11.437  13.050  -8.444  1.00  0.00    -0.394 OA
ATOM     21  H   UNL     1      11.386  13.993  -8.750  1.00  0.00     0.210 HD
ENDBRANCH  19  20
ENDBRANCH  15  19
ENDBRANCH  12  15
ENDBRANCH  10  11
BRANCH  10  22
ATOM     22  CB  PHE A   2      15.610   9.773  -4.880  1.00  0.00     0.070 C 
BRANCH  22  23
ATOM     23  CG  PHE A   2      14.435   9.292  -4.092  1.00  0.00    -0.045 A 
ATOM     24  CD1 PHE A   2      13.898  10.048  -3.033  1.00  0.00     0.004 A 
ATOM     25  CD2 PHE A   2      13.964   7.991  -4.310  1.00  0.00     0.004 A 
ATOM     26  CE1 PHE A   2      12.866   9.535  -2.258  1.00  0.00     0.000 A 
ATOM     27  CE2 PHE A   2      12.937   7.477  -3.520  1.00  0.00     0.000 A 
ATOM     28  CZ  PHE A   2      12.384   8.252  -2.500  1.00  0.00     0.000 A 
ENDBRANCH  22  23
ENDBRANCH  10  22
ENDBRANCH   7  10
ENDBRANCH   5   6
BRANCH   5  29
ATOM     29  CB  LEU A   3      20.163  12.252  -5.217  1.00  0.00     0.038 C 
BRANCH  29  30
ATOM     30  CG  LEU A   3      20.414  11.679  -3.792  1.00  0.00    -0.015 C 
ATOM     31  CD1 LEU A   3      21.815  12.068  -3.315  1.00  0.00     0.007 C 
ATOM     32  CD2 LEU A   3      19.366  12.169  -2.782  1.00  0.00     0.007 C 
ENDBRANCH  29  30
ENDBRANCH   5  29
ENDBRANCH   1   5
BRANCH   3  33
ATOM     33  CA  HIS A   4      21.359   8.748  -8.155  1.00  0.00     0.177 C 
BRANCH  33  34
ATOM     34  C   HIS A   4      22.729   9.208  -8.522  1.00  0.00     0.243 C 
ATOM     35  N   GLY A   5      23.832   8.745  -7.752  1.00  0.00    -0.345 N 
ATOM     36  O   HIS A   4      22.899  10.022  -9.471  1.00  0.00    -0.273 OA
ATOM     37  H   UNL     1      23.670   8.066  -6.974  1.00  0.00     0.164 HD
BRANCH  35  38
ATOM     38  CA  GLY A   5      25.203   9.121  -8.034  1.00  0.00     0.216 C 
BRANCH  38  39
ATOM     39  C   GLY A   5      25.896   7.973  -8.675  1.00  0.00     0.240 C 
ATOM     40  N   ASN A   6      25.906   7.875 -10.094  1.00  0.00    -0.341 N 
ATOM     41  O   GLY A   5      26.451   7.094  -7.965  1.00  0.00    -0.273 OA
ATOM     42  H   UNL     1      25.480   8.662 -10.636  1.00  0.00     0.164 HD
BRANCH  40  43
ATOM     43  CA  ASN A   6      26.536   6.761 -10.799  1.00  0.00     0.201 C 
BRANCH  43  44
ATOM     44  C   ASN A   6      27.987   6.646 -10.411  1.00  0.00     0.326 C 
ATOM     45  O   ASN A   6      28.793   7.578 -10.676  1.00  0.00    -0.250 OA
BRANCH  44  46
ATOM     46  OXT ASN A   6      28.441   5.503  -9.760  1.00  0.00    -0.480 OA
ATOM     47  H   UNL     1      29.413   5.410  -9.491  1.00  0.00     0.296 HD
ENDBRANCH  44  46
ENDBRANCH  43  44
BRANCH  43  48
ATOM     48  CB  ASN A   6      26.425   6.957 -12.319  1.00  0.00     0.136 C 
BRANCH  48  49
ATOM     49  CG  ASN A   6      25.013   7.188 -12.774  1.00  0.00     0.220 C 
ATOM     50  ND2 ASN A   6      24.757   8.093 -13.837  1.00  0.00    -0.370 N 
ATOM     51  OD1 ASN A   6      24.057   6.567 -12.243  1.00  0.00    -0.275 OA
ATOM     52  H   UNL     1      23.778   8.257 -14.163  1.00  0.00     0.159 HD
ATOM     53  H   UNL     1      25.536   8.602 -14.310  1.00  0.00     0.159 HD
ENDBRANCH  48  49
ENDBRANCH  43  48
ENDBRANCH  40  43
ENDBRANCH  38  39
ENDBRANCH  35  38
ENDBRANCH  33  34
BRANCH  33  54
ATOM     54  CB  HIS A   4      20.671   8.000  -9.300  1.00  0.00     0.093 C 
BRANCH  54  55
ATOM     55  CG  HIS A   4      21.406   6.763  -9.749  1.00  0.00     0.061 A 
ATOM     56  ND1 HIS A   4      21.226   6.213 -10.966  1.00  0.00    -0.242 NA
ATOM     57  CD2 HIS A   4      22.147   5.901  -8.962  1.00  0.00     0.107 A 
ATOM     58  CE1 HIS A   4      21.893   5.041 -10.904  1.00  0.00     0.196 A 
ATOM     59  NE2 HIS A   4      22.463   4.830  -9.705  1.00  0.00    -0.351 N 
ATOM     60  H   UNL     1      23.013   3.994  -9.405  1.00  0.00     0.167 HD
ENDBRANCH  54  55
ENDBRANCH  33  54
ENDBRANCH   3  33
TORSDOF 23
