REMARK SMILES CC(C)C[C@H](NC(=O)[C@H](Cc1ccccc1)NC(=O)[C@@H](N)CO)C(=O)N[C@@H](CCC(N)=O)C(=O)N[C@@H](CCCCN)C(=O)N[C@@H](CC(N)=O)C(=O)O
REMARK SMILES IDX 24 1 25 2 26 3 5 5 6 6 7 7 8 8 9 10 17 11 18 12 19 13 20 15
REMARK SMILES IDX 21 16 22 19 23 20 10 22 11 23 12 24 16 25 13 26 15 27 14 28
REMARK SMILES IDX 4 29 2 30 1 31 3 32 27 33 33 34 35 35 34 36 36 38 42 39
REMARK SMILES IDX 44 40 43 41 45 43 50 44 51 45 52 46 46 48 47 49 48 50 49 51
REMARK SMILES IDX 37 54 38 55 39 56 40 57 41 58 28 61 29 62 30 63 31 64 32 65
REMARK H PARENT 26 4 6 9 17 14 21 17 21 18 23 21 35 37 44 42 52 47 48 52 48 53
REMARK H PARENT 41 59 41 60 31 66 31 67
ROOT
ATOM      1  C   LEU A   3      20.052  10.085  -6.477  1.00  0.00     0.243 C 
ATOM      2  O   LEU A   3      20.164   9.161  -5.623  1.00  0.00    -0.273 OA
ATOM      3  N   GLN A   4      20.565   9.917  -7.786  1.00  0.00    -0.343 N 
ATOM      4  H   UNL     1      20.399  10.656  -8.507  1.00  0.00     0.164 HD
ENDROOT
BRANCH   1   5
ATOM      5  CA  LEU A   3      19.340  11.354  -6.146  1.00  0.00     0.171 C 
BRANCH   5   6
ATOM      6  N   LEU A   3      18.083  11.021  -5.537  1.00  0.00    -0.343 N 
ATOM      7  C   PHE A   2      16.886  11.745  -5.776  1.00  0.00     0.243 C 
ATOM      8  O   PHE A   2      16.904  12.796  -6.474  1.00  0.00    -0.273 OA
ATOM      9  H   UNL     1      18.155  10.389  -4.716  1.00  0.00     0.164 HD
BRANCH   7  10
ATOM     10  CA  PHE A   2      15.652  11.312  -5.056  1.00  0.00     0.175 C 
BRANCH  10  11
ATOM     11  N   PHE A   2      14.456  11.738  -5.766  1.00  0.00    -0.343 N 
ATOM     12  C   SER A   1      13.917  13.048  -5.633  1.00  0.00     0.239 C 
ATOM     13  O   SER A   1      14.447  13.866  -4.833  1.00  0.00    -0.273 OA
ATOM     14  H   UNL     1      13.871  10.998  -6.212  1.00  0.00     0.164 HD
BRANCH  12  15
ATOM     15  CA  SER A   1      12.661  13.409  -6.390  1.00  0.00     0.167 C 
BRANCH  15  16
ATOM     16  N   SER A   1      12.454  14.859  -6.401  1.00  0.00    -0.318 NA
ATOM     17  H   UNL     1      13.316  15.336  -6.757  1.00  0.00     0.119 HD
ATOM     18  H   UNL     1      12.284  15.188  -5.423  1.00  0.00     0.119 HD
ENDBRANCH  15  16
BRANCH  15  19
ATOM     19  CB  SER A   1      12.693  12.886  -7.842  1.00  0.00     0.184 C 
BRANCH  19  20
ATOM     20  OG  SER A   1      11.438  13.058  -8.437  1.00  0.00    -0.394 OA
ATOM     21  H   UNL     1      11.539  12.785  -9.386  1.00  0.00     0.210 HD
ENDBRANCH  19  20
ENDBRANCH  15  19
ENDBRANCH  12  15
ENDBRANCH  10  11
BRANCH  10  22
ATOM     22  CB  PHE A   2      15.611   9.773  -4.880  1.00  0.00     0.070 C 
BRANCH  22  23
ATOM     23  CG  PHE A   2      14.436   9.292  -4.091  1.00  0.00    -0.045 A 
ATOM     24  CD1 PHE A   2      13.898  10.048  -3.033  1.00  0.00     0.004 A 
ATOM     25  CD2 PHE A   2      13.964   7.991  -4.310  1.00  0.00     0.004 A 
ATOM     26  CE1 PHE A   2      12.866   9.535  -2.258  1.00  0.00     0.000 A 
ATOM     27  CE2 PHE A   2      12.937   7.476  -3.520  1.00  0.00     0.000 A 
ATOM     28  CZ  PHE A   2      12.384   8.251  -2.500  1.00  0.00     0.000 A 
ENDBRANCH  22  23
ENDBRANCH  10  22
ENDBRANCH   7  10
ENDBRANCH   5   6
BRANCH   5  29
ATOM     29  CB  LEU A   3      20.165  12.251  -5.214  1.00  0.00     0.038 C 
BRANCH  29  30
ATOM     30  CG  LEU A   3      20.409  11.678  -3.788  1.00  0.00    -0.015 C 
ATOM     31  CD1 LEU A   3      21.812  12.051  -3.311  1.00  0.00     0.007 C 
ATOM     32  CD2 LEU A   3      19.363  12.177  -2.781  1.00  0.00     0.007 C 
ENDBRANCH  29  30
ENDBRANCH   5  29
ENDBRANCH   1   5
BRANCH   3  33
ATOM     33  CA  GLN A   4      21.349   8.755  -8.151  1.00  0.00     0.171 C 
BRANCH  33  34
ATOM     34  C   GLN A   4      22.714   9.213  -8.526  1.00  0.00     0.243 C 
ATOM     35  N   LYS A   5      23.821   8.721  -7.785  1.00  0.00    -0.343 N 
ATOM     36  O   GLN A   4      22.879  10.033  -9.470  1.00  0.00    -0.273 OA
ATOM     37  H   UNL     1      23.665   8.005  -7.039  1.00  0.00     0.164 HD
BRANCH  35  38
ATOM     38  CA  LYS A   5      25.183   9.128  -8.068  1.00  0.00     0.171 C 
BRANCH  38  39
ATOM     39  C   LYS A   5      25.901   7.974  -8.683  1.00  0.00     0.243 C 
ATOM     40  N   ASN A   6      25.913   7.869 -10.100  1.00  0.00    -0.341 N 
ATOM     41  O   LYS A   5      26.448   7.092  -7.967  1.00  0.00    -0.273 OA
ATOM     42  H   UNL     1      25.487   8.651 -10.649  1.00  0.00     0.164 HD
BRANCH  40  43
ATOM     43  CA  ASN A   6      26.541   6.753 -10.802  1.00  0.00     0.201 C 
BRANCH  43  44
ATOM     44  C   ASN A   6      27.992   6.643 -10.414  1.00  0.00     0.326 C 
ATOM     45  O   ASN A   6      28.794   7.579 -10.677  1.00  0.00    -0.250 OA
BRANCH  44  46
ATOM     46  OXT ASN A   6      28.449   5.501  -9.765  1.00  0.00    -0.480 OA
ATOM     47  H   UNL     1      29.421   5.410  -9.496  1.00  0.00     0.296 HD
ENDBRANCH  44  46
ENDBRANCH  43  44
BRANCH  43  48
ATOM     48  CB  ASN A   6      26.424   6.948 -12.322  1.00  0.00     0.136 C 
BRANCH  48  49
ATOM     49  CG  ASN A   6      25.010   7.181 -12.773  1.00  0.00     0.220 C 
ATOM     50  ND2 ASN A   6      24.754   8.090 -13.833  1.00  0.00    -0.370 N 
ATOM     51  OD1 ASN A   6      24.053   6.558 -12.243  1.00  0.00    -0.275 OA
ATOM     52  H   UNL     1      25.533   8.601 -14.305  1.00  0.00     0.159 HD
ATOM     53  H   UNL     1      23.775   8.257 -14.157  1.00  0.00     0.159 HD
ENDBRANCH  48  49
ENDBRANCH  43  48
ENDBRANCH  40  43
ENDBRANCH  38  39
BRANCH  38  54
ATOM     54  CB  LYS A   5      25.859   9.609  -6.787  1.00  0.00     0.035 C 
BRANCH  54  55
ATOM     55  CG  LYS A   5      25.182  10.873  -6.244  1.00  0.00     0.004 C 
BRANCH  55  56
ATOM     56  CD  LYS A   5      25.890  11.355  -4.974  1.00  0.00     0.015 C 
BRANCH  56  57
ATOM     57  CE  LYS A   5      25.485  12.786  -4.599  1.00  0.00     0.077 C 
BRANCH  57  58
ATOM     58  NZ  LYS A   5      26.041  13.747  -5.548  1.00  0.00    -0.330 NA
ATOM     59  H   UNL     1      25.675  14.693  -5.294  1.00  0.00     0.118 HD
ATOM     60  H   UNL     1      27.077  13.783  -5.408  1.00  0.00     0.118 HD
ENDBRANCH  57  58
ENDBRANCH  56  57
ENDBRANCH  55  56
ENDBRANCH  54  55
ENDBRANCH  38  54
ENDBRANCH  35  38
ENDBRANCH  33  34
BRANCH  33  61
ATOM     61  CB  GLN A   4      20.658   7.993  -9.286  1.00  0.00     0.045 C 
BRANCH  61  62
ATOM     62  CG  GLN A   4      21.452   6.767  -9.763  1.00  0.00     0.102 C 
BRANCH  62  63
ATOM     63  CD  GLN A   4      21.757   5.806  -8.646  1.00  0.00     0.217 C 
ATOM     64  NE2 GLN A   4      23.105   5.445  -8.347  1.00  0.00    -0.370 N 
ATOM     65  OE1 GLN A   4      20.814   5.298  -7.982  1.00  0.00    -0.275 OA
ATOM     66  H   UNL     1      23.313   4.787  -7.564  1.00  0.00     0.159 HD
ATOM     67  H   UNL     1      23.898   5.825  -8.909  1.00  0.00     0.159 HD
ENDBRANCH  62  63
ENDBRANCH  61  62
ENDBRANCH  33  61
ENDBRANCH   3  33
TORSDOF 29
