REMARK SMILES N=C(N)NCCC[C@H](NC(=O)[C@H](CCCCN)NC(=O)CNC(=O)[C@H](Cc1ccccc1)NC(=O)[C@@H](N)CO)C(=O)N[C@@H](CC(N)=O)C(=O)O
REMARK SMILES IDX 19 1 20 2 18 3 21 5 22 6 23 7 24 8 25 10 33 11 34 12 35 13
REMARK SMILES IDX 36 15 37 16 38 19 39 20 26 22 27 23 28 24 32 25 29 26 31 27
REMARK SMILES IDX 30 28 12 29 10 30 9 31 11 32 8 34 40 35 42 36 41 37 43 39
REMARK SMILES IDX 48 40 49 41 50 42 44 44 45 45 46 46 47 47 7 50 6 51 5 52
REMARK SMILES IDX 4 53 2 54 3 55 1 59 13 61 14 62 15 63 16 64 17 65
REMARK H PARENT 18 4 22 9 33 14 37 17 37 18 39 21 9 33 42 38 50 43 46 48 46 49
REMARK H PARENT 4 56 3 57 3 58 1 60 17 66 17 67
ROOT
ATOM      1  C   GLY A   3      20.042  10.102  -6.467  1.00  0.00     0.240 C 
ATOM      2  O   GLY A   3      20.173   9.205  -5.588  1.00  0.00    -0.273 OA
ATOM      3  N   LYS A   4      20.556   9.920  -7.777  1.00  0.00    -0.343 N 
ATOM      4  H   UNL     1      20.386  10.653  -8.504  1.00  0.00     0.164 HD
ENDROOT
BRANCH   1   5
ATOM      5  CA  GLY A   3      19.352  11.378  -6.152  1.00  0.00     0.216 C 
BRANCH   5   6
ATOM      6  N   GLY A   3      18.112  11.084  -5.478  1.00  0.00    -0.345 N 
ATOM      7  C   PHE A   2      16.896  11.758  -5.772  1.00  0.00     0.243 C 
ATOM      8  O   PHE A   2      16.901  12.792  -6.494  1.00  0.00    -0.273 OA
ATOM      9  H   UNL     1      18.213  10.611  -4.553  1.00  0.00     0.164 HD
BRANCH   7  10
ATOM     10  CA  PHE A   2      15.658  11.316  -5.061  1.00  0.00     0.175 C 
BRANCH  10  11
ATOM     11  N   PHE A   2      14.458  11.740  -5.770  1.00  0.00    -0.343 N 
ATOM     12  C   SER A   1      13.917  13.050  -5.636  1.00  0.00     0.239 C 
ATOM     13  O   SER A   1      14.450  13.869  -4.838  1.00  0.00    -0.273 OA
ATOM     14  H   UNL     1      13.869  11.000  -6.209  1.00  0.00     0.164 HD
BRANCH  12  15
ATOM     15  CA  SER A   1      12.656  13.409  -6.383  1.00  0.00     0.167 C 
BRANCH  15  16
ATOM     16  N   SER A   1      12.468  14.861  -6.382  1.00  0.00    -0.318 NA
ATOM     17  H   UNL     1      12.305  15.173  -5.396  1.00  0.00     0.119 HD
ATOM     18  H   UNL     1      11.581  15.085  -6.889  1.00  0.00     0.119 HD
ENDBRANCH  15  16
BRANCH  15  19
ATOM     19  CB  SER A   1      12.695  12.892  -7.841  1.00  0.00     0.184 C 
BRANCH  19  20
ATOM     20  OG  SER A   1      11.441  13.037  -8.449  1.00  0.00    -0.394 OA
ATOM     21  H   UNL     1      10.854  12.334  -8.064  1.00  0.00     0.210 HD
ENDBRANCH  19  20
ENDBRANCH  15  19
ENDBRANCH  12  15
ENDBRANCH  10  11
BRANCH  10  22
ATOM     22  CB  PHE A   2      15.627   9.778  -4.891  1.00  0.00     0.070 C 
BRANCH  22  23
ATOM     23  CG  PHE A   2      14.456   9.289  -4.088  1.00  0.00    -0.045 A 
ATOM     24  CD1 PHE A   2      13.910  10.047  -3.033  1.00  0.00     0.004 A 
ATOM     25  CD2 PHE A   2      13.976   7.991  -4.310  1.00  0.00     0.004 A 
ATOM     26  CE1 PHE A   2      12.872   9.537  -2.263  1.00  0.00     0.000 A 
ATOM     27  CE2 PHE A   2      12.944   7.479  -3.524  1.00  0.00     0.000 A 
ATOM     28  CZ  PHE A   2      12.389   8.254  -2.506  1.00  0.00     0.000 A 
ENDBRANCH  22  23
ENDBRANCH  10  22
ENDBRANCH   7  10
ENDBRANCH   5   6
ENDBRANCH   1   5
BRANCH   3  29
ATOM     29  CA  LYS A   4      21.343   8.760  -8.141  1.00  0.00     0.171 C 
BRANCH  29  30
ATOM     30  C   LYS A   4      22.710   9.217  -8.519  1.00  0.00     0.243 C 
ATOM     31  N   ARG A   5      23.820   8.719  -7.785  1.00  0.00    -0.343 N 
ATOM     32  O   LYS A   4      22.876  10.033  -9.466  1.00  0.00    -0.273 OA
ATOM     33  H   UNL     1      23.664   8.026  -7.018  1.00  0.00     0.164 HD
BRANCH  31  34
ATOM     34  CA  ARG A   5      25.184   9.121  -8.072  1.00  0.00     0.171 C 
BRANCH  34  35
ATOM     35  C   ARG A   5      25.899   7.967  -8.685  1.00  0.00     0.243 C 
ATOM     36  N   ASN A   6      25.913   7.864 -10.102  1.00  0.00    -0.341 N 
ATOM     37  O   ARG A   5      26.447   7.086  -7.969  1.00  0.00    -0.273 OA
ATOM     38  H   UNL     1      25.489   8.648 -10.651  1.00  0.00     0.164 HD
BRANCH  36  39
ATOM     39  CA  ASN A   6      26.542   6.751 -10.804  1.00  0.00     0.201 C 
BRANCH  39  40
ATOM     40  C   ASN A   6      27.993   6.642 -10.415  1.00  0.00     0.326 C 
ATOM     41  O   ASN A   6      28.794   7.579 -10.677  1.00  0.00    -0.250 OA
BRANCH  40  42
ATOM     42  OXT ASN A   6      28.451   5.499  -9.768  1.00  0.00    -0.480 OA
ATOM     43  H   UNL     1      29.424   5.409  -9.499  1.00  0.00     0.296 HD
ENDBRANCH  40  42
ENDBRANCH  39  40
BRANCH  39  44
ATOM     44  CB  ASN A   6      26.425   6.947 -12.323  1.00  0.00     0.136 C 
BRANCH  44  45
ATOM     45  CG  ASN A   6      25.010   7.181 -12.773  1.00  0.00     0.220 C 
ATOM     46  ND2 ASN A   6      24.754   8.091 -13.834  1.00  0.00    -0.370 N 
ATOM     47  OD1 ASN A   6      24.053   6.558 -12.243  1.00  0.00    -0.275 OA
ATOM     48  H   UNL     1      23.775   8.258 -14.157  1.00  0.00     0.159 HD
ATOM     49  H   UNL     1      25.533   8.600 -14.306  1.00  0.00     0.159 HD
ENDBRANCH  44  45
ENDBRANCH  39  44
ENDBRANCH  36  39
ENDBRANCH  34  35
BRANCH  34  50
ATOM     50  CB  ARG A   5      25.862   9.604  -6.795  1.00  0.00     0.037 C 
BRANCH  50  51
ATOM     51  CG  ARG A   5      25.167  10.859  -6.270  1.00  0.00     0.024 C 
BRANCH  51  52
ATOM     52  CD  ARG A   5      25.842  11.390  -5.014  1.00  0.00     0.116 C 
BRANCH  52  53
ATOM     53  NE  ARG A   5      25.378  10.687  -3.820  1.00  0.00    -0.357 N 
ATOM     54  CZ  ARG A   5      25.470  11.282  -2.526  1.00  0.00     0.185 C 
ATOM     55  NH2 ARG A   5      26.109  12.546  -2.351  1.00  0.00    -0.370 N 
ATOM     56  H   UNL     1      24.900   9.761  -3.912  1.00  0.00     0.163 HD
ATOM     57  H   UNL     1      26.700  12.981  -3.092  1.00  0.00     0.159 HD
ATOM     58  H   UNL     1      26.084  13.022  -1.422  1.00  0.00     0.159 HD
BRANCH  54  59
ATOM     59  NH1 ARG A   5      24.956  10.671  -1.506  1.00  0.00    -0.270 NA
ATOM     60  H   UNL     1      24.999  11.075  -0.544  1.00  0.00     0.191 HD
ENDBRANCH  54  59
ENDBRANCH  52  53
ENDBRANCH  51  52
ENDBRANCH  50  51
ENDBRANCH  34  50
ENDBRANCH  31  34
ENDBRANCH  29  30
BRANCH  29  61
ATOM     61  CB  LYS A   4      20.657   8.004  -9.282  1.00  0.00     0.035 C 
BRANCH  61  62
ATOM     62  CG  LYS A   4      21.441   6.771  -9.760  1.00  0.00     0.004 C 
BRANCH  62  63
ATOM     63  CD  LYS A   4      21.775   5.753  -8.653  1.00  0.00     0.015 C 
BRANCH  63  64
ATOM     64  CE  LYS A   4      20.544   5.193  -7.925  1.00  0.00     0.077 C 
BRANCH  64  65
ATOM     65  NZ  LYS A   4      19.618   4.568  -8.865  1.00  0.00    -0.330 NA
ATOM     66  H   UNL     1      18.779   4.256  -8.325  1.00  0.00     0.118 HD
ATOM     67  H   UNL     1      20.069   3.702  -9.241  1.00  0.00     0.118 HD
ENDBRANCH  64  65
ENDBRANCH  63  64
ENDBRANCH  62  63
ENDBRANCH  61  62
ENDBRANCH  29  61
ENDBRANCH   3  29
TORSDOF 29
