REMARK SMILES CC(C)C[C@H](NC(=O)[C@H](Cc1ccccc1)NC(=O)[C@@H](N)CO)C(=O)NCC(=O)N[C@@H](Cc1c[nH]cn1)C(=O)N[C@@H](CC(N)=O)C(=O)O
REMARK SMILES IDX 24 1 25 2 26 3 5 5 6 6 7 7 8 8 9 10 17 11 18 12 19 13 20 15
REMARK SMILES IDX 21 16 22 19 23 20 10 22 11 23 12 24 16 25 13 26 15 27 14 28
REMARK SMILES IDX 4 29 2 30 1 31 3 32 27 33 28 34 30 35 29 36 31 38 38 39
REMARK SMILES IDX 40 40 39 41 41 43 46 44 47 45 48 46 42 48 43 49 44 50 45 51
REMARK SMILES IDX 32 54 33 55 37 56 34 57 36 58 35 59
REMARK H PARENT 26 4 6 9 17 14 21 17 21 18 23 21 30 37 40 42 48 47 44 52 44 53
REMARK H PARENT 35 60
ROOT
ATOM      1  C   LEU A   3      20.060  10.078  -6.484  1.00  0.00     0.243 C 
ATOM      2  O   LEU A   3      20.181   9.153  -5.633  1.00  0.00    -0.273 OA
ATOM      3  N   GLY A   4      20.560   9.913  -7.799  1.00  0.00    -0.345 N 
ATOM      4  H   UNL     1      20.395  10.661  -8.511  1.00  0.00     0.164 HD
ENDROOT
BRANCH   1   5
ATOM      5  CA  LEU A   3      19.344  11.348  -6.148  1.00  0.00     0.171 C 
BRANCH   5   6
ATOM      6  N   LEU A   3      18.085  11.016  -5.541  1.00  0.00    -0.343 N 
ATOM      7  C   PHE A   2      16.889  11.744  -5.776  1.00  0.00     0.243 C 
ATOM      8  O   PHE A   2      16.908  12.795  -6.474  1.00  0.00    -0.273 OA
ATOM      9  H   UNL     1      18.157  10.379  -4.723  1.00  0.00     0.164 HD
BRANCH   7  10
ATOM     10  CA  PHE A   2      15.653  11.313  -5.056  1.00  0.00     0.175 C 
BRANCH  10  11
ATOM     11  N   PHE A   2      14.457  11.740  -5.769  1.00  0.00    -0.343 N 
ATOM     12  C   SER A   1      13.915  13.049  -5.637  1.00  0.00     0.239 C 
ATOM     13  O   SER A   1      14.442  13.869  -4.836  1.00  0.00    -0.273 OA
ATOM     14  H   UNL     1      13.878  11.000  -6.222  1.00  0.00     0.164 HD
BRANCH  12  15
ATOM     15  CA  SER A   1      12.661  13.410  -6.390  1.00  0.00     0.167 C 
BRANCH  15  16
ATOM     16  N   SER A   1      12.475  14.863  -6.375  1.00  0.00    -0.318 NA
ATOM     17  H   UNL     1      11.521  15.089  -6.739  1.00  0.00     0.119 HD
ATOM     18  H   UNL     1      13.175  15.314  -7.009  1.00  0.00     0.119 HD
ENDBRANCH  15  16
BRANCH  15  19
ATOM     19  CB  SER A   1      12.688  12.877  -7.844  1.00  0.00     0.184 C 
BRANCH  19  20
ATOM     20  OG  SER A   1      11.436  13.047  -8.450  1.00  0.00    -0.394 OA
ATOM     21  H   UNL     1      11.447  13.936  -8.892  1.00  0.00     0.210 HD
ENDBRANCH  19  20
ENDBRANCH  15  19
ENDBRANCH  12  15
ENDBRANCH  10  11
BRANCH  10  22
ATOM     22  CB  PHE A   2      15.610   9.774  -4.879  1.00  0.00     0.070 C 
BRANCH  22  23
ATOM     23  CG  PHE A   2      14.435   9.293  -4.092  1.00  0.00    -0.045 A 
ATOM     24  CD1 PHE A   2      13.897  10.048  -3.033  1.00  0.00     0.004 A 
ATOM     25  CD2 PHE A   2      13.964   7.991  -4.310  1.00  0.00     0.004 A 
ATOM     26  CE1 PHE A   2      12.865   9.535  -2.258  1.00  0.00     0.000 A 
ATOM     27  CE2 PHE A   2      12.937   7.477  -3.520  1.00  0.00     0.000 A 
ATOM     28  CZ  PHE A   2      12.384   8.252  -2.500  1.00  0.00     0.000 A 
ENDBRANCH  22  23
ENDBRANCH  10  22
ENDBRANCH   7  10
ENDBRANCH   5   6
BRANCH   5  29
ATOM     29  CB  LEU A   3      20.166  12.247  -5.215  1.00  0.00     0.038 C 
BRANCH  29  30
ATOM     30  CG  LEU A   3      20.407  11.676  -3.788  1.00  0.00    -0.015 C 
ATOM     31  CD1 LEU A   3      21.809  12.051  -3.309  1.00  0.00     0.007 C 
ATOM     32  CD2 LEU A   3      19.360  12.176  -2.783  1.00  0.00     0.007 C 
ENDBRANCH  29  30
ENDBRANCH   5  29
ENDBRANCH   1   5
BRANCH   3  33
ATOM     33  CA  GLY A   4      21.334   8.757  -8.202  1.00  0.00     0.216 C 
BRANCH  33  34
ATOM     34  C   GLY A   4      22.707   9.207  -8.538  1.00  0.00     0.240 C 
ATOM     35  N   HIS A   5      23.807   8.725  -7.777  1.00  0.00    -0.342 N 
ATOM     36  O   GLY A   4      22.884  10.028  -9.478  1.00  0.00    -0.273 OA
ATOM     37  H   UNL     1      23.641   8.017  -7.025  1.00  0.00     0.164 HD
BRANCH  35  38
ATOM     38  CA  HIS A   5      25.174   9.128  -8.063  1.00  0.00     0.177 C 
BRANCH  38  39
ATOM     39  C   HIS A   5      25.895   7.974  -8.678  1.00  0.00     0.243 C 
ATOM     40  N   ASN A   6      25.913   7.870 -10.097  1.00  0.00    -0.340 N 
ATOM     41  O   HIS A   5      26.445   7.094  -7.963  1.00  0.00    -0.273 OA
ATOM     42  H   UNL     1      25.493   8.654 -10.646  1.00  0.00     0.164 HD
BRANCH  40  43
ATOM     43  CA  ASN A   6      26.541   6.754 -10.799  1.00  0.00     0.201 C 
BRANCH  43  44
ATOM     44  C   ASN A   6      27.992   6.644 -10.412  1.00  0.00     0.326 C 
ATOM     45  O   ASN A   6      28.794   7.579 -10.677  1.00  0.00    -0.250 OA
BRANCH  44  46
ATOM     46  OXT ASN A   6      28.449   5.502  -9.763  1.00  0.00    -0.480 OA
ATOM     47  H   UNL     1      29.422   5.411  -9.495  1.00  0.00     0.296 HD
ENDBRANCH  44  46
ENDBRANCH  43  44
BRANCH  43  48
ATOM     48  CB  ASN A   6      26.423   6.948 -12.319  1.00  0.00     0.136 C 
BRANCH  48  49
ATOM     49  CG  ASN A   6      25.009   7.182 -12.770  1.00  0.00     0.220 C 
ATOM     50  ND2 ASN A   6      24.754   8.089 -13.834  1.00  0.00    -0.370 N 
ATOM     51  OD1 ASN A   6      24.051   6.563 -12.237  1.00  0.00    -0.275 OA
ATOM     52  H   UNL     1      23.776   8.256 -14.158  1.00  0.00     0.159 HD
ATOM     53  H   UNL     1      25.534   8.596 -14.308  1.00  0.00     0.159 HD
ENDBRANCH  48  49
ENDBRANCH  43  48
ENDBRANCH  40  43
ENDBRANCH  38  39
BRANCH  38  54
ATOM     54  CB  HIS A   5      25.853   9.627  -6.787  1.00  0.00     0.093 C 
BRANCH  54  55
ATOM     55  CG  HIS A   5      25.191  10.859  -6.233  1.00  0.00     0.061 A 
ATOM     56  ND1 HIS A   5      24.452  11.729  -6.954  1.00  0.00    -0.242 NA
ATOM     57  CD2 HIS A   5      25.420  11.378  -4.978  1.00  0.00     0.107 A 
ATOM     58  CE1 HIS A   5      24.221  12.749  -6.101  1.00  0.00     0.196 A 
ATOM     59  NE2 HIS A   5      24.803  12.567  -4.902  1.00  0.00    -0.351 N 
ATOM     60  H   UNL     1      24.786  13.218  -4.086  1.00  0.00     0.167 HD
ENDBRANCH  54  55
ENDBRANCH  38  54
ENDBRANCH  35  38
ENDBRANCH  33  34
ENDBRANCH   3  33
TORSDOF 23
