REMARK SMILES CC(C)C[C@H](NC(=O)[C@H](CCC(N)=O)NC(=O)[C@H](Cc1ccccc1)NC(=O)[C@@H](N)CO)C(=O)N[C@@H](CCCNC(=N)N)C(=O)N[C@@H](CCC(N)=O)C(=O)O
REMARK SMILES IDX 7 1 8 2 6 3 9 5 15 6 16 7 17 8 18 10 26 11 27 12 28 13 29 15
REMARK SMILES IDX 30 16 31 19 32 20 19 22 20 23 21 24 25 25 22 26 24 27 23 28
REMARK SMILES IDX 10 29 11 30 12 31 13 32 14 33 5 36 33 37 35 38 34 39 36 41
REMARK SMILES IDX 44 42 46 43 45 44 47 46 53 47 54 48 55 49 48 51 49 52 50 53
REMARK SMILES IDX 51 54 52 55 37 58 38 59 39 60 40 61 41 62 43 63 42 67 4 69
REMARK SMILES IDX 2 70 1 71 3 72
REMARK H PARENT 6 4 15 9 26 14 30 17 30 18 32 21 13 34 13 35 35 40 46 45 55 50
REMARK H PARENT 51 56 51 57 40 64 43 65 43 66 42 68
ROOT
ATOM      1  C   GLN A   3      20.039  10.085  -6.470  1.00  0.00     0.243 C 
ATOM      2  O   GLN A   3      20.156   9.167  -5.611  1.00  0.00    -0.273 OA
ATOM      3  N   LEU A   4      20.564   9.920  -7.777  1.00  0.00    -0.343 N 
ATOM      4  H   UNL     1      20.402  10.661  -8.497  1.00  0.00     0.164 HD
ENDROOT
BRANCH   1   5
ATOM      5  CA  GLN A   3      19.337  11.359  -6.141  1.00  0.00     0.171 C 
BRANCH   5   6
ATOM      6  N   GLN A   3      18.086  11.050  -5.500  1.00  0.00    -0.342 N 
ATOM      7  C   PHE A   2      16.884  11.751  -5.773  1.00  0.00     0.243 C 
ATOM      8  O   PHE A   2      16.900  12.793  -6.484  1.00  0.00    -0.273 OA
ATOM      9  H   UNL     1      18.158  10.508  -4.614  1.00  0.00     0.164 HD
BRANCH   7  10
ATOM     10  CA  PHE A   2      15.649  11.313  -5.060  1.00  0.00     0.175 C 
BRANCH  10  11
ATOM     11  N   PHE A   2      14.451  11.740  -5.769  1.00  0.00    -0.343 N 
ATOM     12  C   SER A   1      13.914  13.051  -5.636  1.00  0.00     0.239 C 
ATOM     13  O   SER A   1      14.449  13.870  -4.839  1.00  0.00    -0.273 OA
ATOM     14  H   UNL     1      13.858  11.001  -6.206  1.00  0.00     0.164 HD
BRANCH  12  15
ATOM     15  CA  SER A   1      12.654  13.411  -6.383  1.00  0.00     0.167 C 
BRANCH  15  16
ATOM     16  N   SER A   1      12.467  14.863  -6.382  1.00  0.00    -0.318 NA
ATOM     17  H   UNL     1      12.304  15.175  -5.397  1.00  0.00     0.119 HD
ATOM     18  H   UNL     1      11.581  15.088  -6.891  1.00  0.00     0.119 HD
ENDBRANCH  15  16
BRANCH  15  19
ATOM     19  CB  SER A   1      12.694  12.894  -7.842  1.00  0.00     0.184 C 
BRANCH  19  20
ATOM     20  OG  SER A   1      11.440  13.037  -8.449  1.00  0.00    -0.394 OA
ATOM     21  H   UNL     1      10.855  12.332  -8.065  1.00  0.00     0.210 HD
ENDBRANCH  19  20
ENDBRANCH  15  19
ENDBRANCH  12  15
ENDBRANCH  10  11
BRANCH  10  22
ATOM     22  CB  PHE A   2      15.611   9.774  -4.892  1.00  0.00     0.070 C 
BRANCH  22  23
ATOM     23  CG  PHE A   2      14.443   9.289  -4.090  1.00  0.00    -0.045 A 
ATOM     24  CD1 PHE A   2      13.903  10.046  -3.033  1.00  0.00     0.004 A 
ATOM     25  CD2 PHE A   2      13.968   7.989  -4.310  1.00  0.00     0.004 A 
ATOM     26  CE1 PHE A   2      12.869   9.535  -2.260  1.00  0.00     0.000 A 
ATOM     27  CE2 PHE A   2      12.939   7.477  -3.521  1.00  0.00     0.000 A 
ATOM     28  CZ  PHE A   2      12.386   8.252  -2.502  1.00  0.00     0.000 A 
ENDBRANCH  22  23
ENDBRANCH  10  22
ENDBRANCH   7  10
ENDBRANCH   5   6
BRANCH   5  29
ATOM     29  CB  GLN A   3      20.190  12.255  -5.238  1.00  0.00     0.045 C 
BRANCH  29  30
ATOM     30  CG  GLN A   3      20.401  11.721  -3.804  1.00  0.00     0.102 C 
BRANCH  30  31
ATOM     31  CD  GLN A   3      21.775  12.051  -3.320  1.00  0.00     0.217 C 
ATOM     32  NE2 GLN A   3      22.159  13.402  -3.071  1.00  0.00    -0.370 N 
ATOM     33  OE1 GLN A   3      22.599  11.120  -3.136  1.00  0.00    -0.275 OA
ATOM     34  H   UNL     1      21.481  14.183  -3.218  1.00  0.00     0.159 HD
ATOM     35  H   UNL     1      23.125  13.623  -2.742  1.00  0.00     0.159 HD
ENDBRANCH  30  31
ENDBRANCH  29  30
ENDBRANCH   5  29
ENDBRANCH   1   5
BRANCH   3  36
ATOM     36  CA  LEU A   4      21.349   8.759  -8.142  1.00  0.00     0.171 C 
BRANCH  36  37
ATOM     37  C   LEU A   4      22.714   9.215  -8.520  1.00  0.00     0.243 C 
ATOM     38  N   ARG A   5      23.822   8.720  -7.783  1.00  0.00    -0.343 N 
ATOM     39  O   LEU A   4      22.879  10.034  -9.465  1.00  0.00    -0.273 OA
ATOM     40  H   UNL     1      23.666   8.030  -7.013  1.00  0.00     0.164 HD
BRANCH  38  41
ATOM     41  CA  ARG A   5      25.185   9.121  -8.069  1.00  0.00     0.171 C 
BRANCH  41  42
ATOM     42  C   ARG A   5      25.900   7.967  -8.682  1.00  0.00     0.243 C 
ATOM     43  N   GLN A   6      25.925   7.878 -10.099  1.00  0.00    -0.341 N 
ATOM     44  O   ARG A   5      26.442   7.081  -7.969  1.00  0.00    -0.273 OA
ATOM     45  H   UNL     1      25.597   8.712 -10.632  1.00  0.00     0.164 HD
BRANCH  43  46
ATOM     46  CA  GLN A   6      26.538   6.767 -10.813  1.00  0.00     0.192 C 
BRANCH  46  47
ATOM     47  C   GLN A   6      27.988   6.643 -10.426  1.00  0.00     0.326 C 
ATOM     48  O   GLN A   6      28.796   7.577 -10.678  1.00  0.00    -0.250 OA
BRANCH  47  49
ATOM     49  OXT GLN A   6      28.438   5.491  -9.790  1.00  0.00    -0.480 OA
ATOM     50  H   UNL     1      29.410   5.391  -9.522  1.00  0.00     0.296 HD
ENDBRANCH  47  49
ENDBRANCH  46  47
BRANCH  46  51
ATOM     51  CB  GLN A   6      26.418   6.987 -12.333  1.00  0.00     0.047 C 
BRANCH  51  52
ATOM     52  CG  GLN A   6      24.958   7.126 -12.814  1.00  0.00     0.102 C 
BRANCH  52  53
ATOM     53  CD  GLN A   6      24.526   8.552 -13.005  1.00  0.00     0.217 C 
ATOM     54  NE2 GLN A   6      25.141   9.369 -14.002  1.00  0.00    -0.370 N 
ATOM     55  OE1 GLN A   6      23.596   9.025 -12.299  1.00  0.00    -0.275 OA
ATOM     56  H   UNL     1      25.888   8.983 -14.621  1.00  0.00     0.159 HD
ATOM     57  H   UNL     1      24.840  10.360 -14.130  1.00  0.00     0.159 HD
ENDBRANCH  52  53
ENDBRANCH  51  52
ENDBRANCH  46  51
ENDBRANCH  43  46
ENDBRANCH  41  42
BRANCH  41  58
ATOM     58  CB  ARG A   5      25.863   9.604  -6.792  1.00  0.00     0.037 C 
BRANCH  58  59
ATOM     59  CG  ARG A   5      25.163  10.857  -6.264  1.00  0.00     0.024 C 
BRANCH  59  60
ATOM     60  CD  ARG A   5      25.842  11.394  -5.013  1.00  0.00     0.116 C 
BRANCH  60  61
ATOM     61  NE  ARG A   5      25.401  10.681  -3.817  1.00  0.00    -0.357 N 
ATOM     62  CZ  ARG A   5      25.488  11.279  -2.523  1.00  0.00     0.185 C 
ATOM     63  NH2 ARG A   5      26.110  12.552  -2.352  1.00  0.00    -0.370 N 
ATOM     64  H   UNL     1      24.949   9.742  -3.905  1.00  0.00     0.163 HD
ATOM     65  H   UNL     1      26.072  13.034  -1.426  1.00  0.00     0.159 HD
ATOM     66  H   UNL     1      26.696  12.991  -3.094  1.00  0.00     0.159 HD
BRANCH  62  67
ATOM     67  NH1 ARG A   5      24.977  10.668  -1.502  1.00  0.00    -0.270 NA
ATOM     68  H   UNL     1      25.012  11.076  -0.542  1.00  0.00     0.191 HD
ENDBRANCH  62  67
ENDBRANCH  60  61
ENDBRANCH  59  60
ENDBRANCH  58  59
ENDBRANCH  41  58
ENDBRANCH  38  41
ENDBRANCH  36  37
BRANCH  36  69
ATOM     69  CB  LEU A   4      20.658   7.999  -9.276  1.00  0.00     0.038 C 
BRANCH  69  70
ATOM     70  CG  LEU A   4      21.451   6.770  -9.772  1.00  0.00    -0.015 C 
ATOM     71  CD1 LEU A   4      21.764   5.779  -8.641  1.00  0.00     0.007 C 
ATOM     72  CD2 LEU A   4      20.662   6.066 -10.879  1.00  0.00     0.007 C 
ENDBRANCH  69  70
ENDBRANCH  36  69
ENDBRANCH   3  36
TORSDOF 30
