REMARK SMILES CC(C)C[C@H](NC(=O)[C@H](Cc1ccccc1)NC(=O)[C@@H](N)CO)C(=O)N[C@@H](CO)C(=O)N[C@@H](Cc1c[nH]cn1)C(=O)N[C@@H](CC(N)=O)C(=O)O
REMARK SMILES IDX 24 1 25 2 26 3 5 5 6 6 7 7 8 8 9 10 17 11 18 12 19 13 20 15
REMARK SMILES IDX 21 16 22 19 23 20 10 22 11 23 12 24 16 25 13 26 15 27 14 28
REMARK SMILES IDX 4 29 2 30 1 31 3 32 27 33 30 34 32 35 31 36 33 38 40 39
REMARK SMILES IDX 42 40 41 41 43 43 48 44 49 45 50 46 44 48 45 49 46 50 47 51
REMARK SMILES IDX 34 54 35 55 39 56 36 57 38 58 37 59 28 61 29 62
REMARK H PARENT 26 4 6 9 17 14 21 17 21 18 23 21 32 37 42 42 50 47 46 52 46 53
REMARK H PARENT 37 60 29 63
ROOT
ATOM      1  C   LEU A   3      -0.272   1.688  -2.362  1.00  0.00     0.243 C 
ATOM      2  O   LEU A   3      -0.016   1.320  -3.541  1.00  0.00    -0.273 OA
ATOM      3  N   SER A   4       0.648   1.399  -1.297  1.00  0.00    -0.340 N 
ATOM      4  H   UNL     1       0.425   1.768  -0.344  1.00  0.00     0.164 HD
ENDROOT
BRANCH   1   5
ATOM      5  CA  LEU A   3      -1.537   2.458  -2.090  1.00  0.00     0.171 C 
BRANCH   5   6
ATOM      6  N   LEU A   3      -2.366   1.704  -1.143  1.00  0.00    -0.343 N 
ATOM      7  C   PHE A   2      -3.288   0.694  -1.585  1.00  0.00     0.243 C 
ATOM      8  O   PHE A   2      -3.195   0.246  -2.762  1.00  0.00    -0.273 OA
ATOM      9  H   UNL     1      -2.224   1.870  -0.122  1.00  0.00     0.164 HD
BRANCH   7  10
ATOM     10  CA  PHE A   2      -4.442   0.231  -0.721  1.00  0.00     0.175 C 
BRANCH  10  11
ATOM     11  N   PHE A   2      -4.838  -1.125  -1.119  1.00  0.00    -0.343 N 
ATOM     12  C   SER A   1      -6.029  -1.402  -1.876  1.00  0.00     0.239 C 
ATOM     13  O   SER A   1      -6.709  -0.455  -2.359  1.00  0.00    -0.273 OA
ATOM     14  H   UNL     1      -4.209  -1.916  -0.853  1.00  0.00     0.164 HD
BRANCH  12  15
ATOM     15  CA  SER A   1      -6.489  -2.820  -2.096  1.00  0.00     0.167 C 
BRANCH  15  16
ATOM     16  N   SER A   1      -5.497  -3.551  -2.887  1.00  0.00    -0.318 NA
ATOM     17  H   UNL     1      -5.897  -4.482  -3.145  1.00  0.00     0.119 HD
ATOM     18  H   UNL     1      -4.643  -3.734  -2.309  1.00  0.00     0.119 HD
ENDBRANCH  15  16
BRANCH  15  19
ATOM     19  CB  SER A   1      -6.775  -3.536  -0.762  1.00  0.00     0.184 C 
BRANCH  19  20
ATOM     20  OG  SER A   1      -7.746  -2.842  -0.025  1.00  0.00    -0.394 OA
ATOM     21  H   UNL     1      -8.615  -3.009  -0.474  1.00  0.00     0.210 HD
ENDBRANCH  19  20
ENDBRANCH  15  19
ENDBRANCH  12  15
ENDBRANCH  10  11
BRANCH  10  22
ATOM     22  CB  PHE A   2      -4.122   0.255   0.787  1.00  0.00     0.070 C 
BRANCH  22  23
ATOM     23  CG  PHE A   2      -5.248  -0.335   1.601  1.00  0.00    -0.045 A 
ATOM     24  CD1 PHE A   2      -5.156  -1.644   2.107  1.00  0.00     0.004 A 
ATOM     25  CD2 PHE A   2      -6.424   0.401   1.814  1.00  0.00     0.004 A 
ATOM     26  CE1 PHE A   2      -6.223  -2.200   2.820  1.00  0.00     0.000 A 
ATOM     27  CE2 PHE A   2      -7.489  -0.160   2.525  1.00  0.00     0.000 A 
ATOM     28  CZ  PHE A   2      -7.390  -1.458   3.026  1.00  0.00     0.000 A 
ENDBRANCH  22  23
ENDBRANCH  10  22
ENDBRANCH   7  10
ENDBRANCH   5   6
BRANCH   5  29
ATOM     29  CB  LEU A   3      -1.205   3.868  -1.545  1.00  0.00     0.038 C 
BRANCH  29  30
ATOM     30  CG  LEU A   3      -2.357   4.888  -1.714  1.00  0.00    -0.015 C 
ATOM     31  CD1 LEU A   3      -3.599   4.511  -0.891  1.00  0.00     0.007 C 
ATOM     32  CD2 LEU A   3      -1.879   6.291  -1.317  1.00  0.00     0.007 C 
ENDBRANCH  29  30
ENDBRANCH   5  29
ENDBRANCH   1   5
BRANCH   3  33
ATOM     33  CA  SER A   4       1.957   0.779  -1.534  1.00  0.00     0.197 C 
BRANCH  33  34
ATOM     34  C   SER A   4       2.414   0.010  -0.321  1.00  0.00     0.245 C 
ATOM     35  N   HIS A   5       3.125  -1.226  -0.483  1.00  0.00    -0.342 N 
ATOM     36  O   SER A   4       2.259   0.501   0.833  1.00  0.00    -0.273 OA
ATOM     37  H   UNL     1       3.101  -1.691  -1.417  1.00  0.00     0.164 HD
BRANCH  35  38
ATOM     38  CA  HIS A   5       3.952  -1.785   0.596  1.00  0.00     0.177 C 
BRANCH  38  39
ATOM     39  C   HIS A   5       5.131  -0.891   0.891  1.00  0.00     0.243 C 
ATOM     40  N   ASN A   6       5.794  -0.980   2.160  1.00  0.00    -0.340 N 
ATOM     41  O   HIS A   5       5.562  -0.099   0.005  1.00  0.00    -0.273 OA
ATOM     42  H   UNL     1       5.407  -1.635   2.878  1.00  0.00     0.164 HD
BRANCH  40  43
ATOM     43  CA  ASN A   6       7.060  -0.287   2.429  1.00  0.00     0.201 C 
BRANCH  43  44
ATOM     44  C   ASN A   6       8.190  -1.016   1.762  1.00  0.00     0.326 C 
ATOM     45  O   ASN A   6       8.251  -2.275   1.804  1.00  0.00    -0.250 OA
BRANCH  44  46
ATOM     46  OXT ASN A   6       9.197  -0.292   1.127  1.00  0.00    -0.480 OA
ATOM     47  H   UNL     1       9.971  -0.765   0.677  1.00  0.00     0.296 HD
ENDBRANCH  44  46
ENDBRANCH  43  44
BRANCH  43  48
ATOM     48  CB  ASN A   6       7.324  -0.189   3.941  1.00  0.00     0.136 C 
BRANCH  48  49
ATOM     49  CG  ASN A   6       6.303   0.679   4.615  1.00  0.00     0.220 C 
ATOM     50  ND2 ASN A   6       6.408   2.101   4.547  1.00  0.00    -0.370 N 
ATOM     51  OD1 ASN A   6       5.329   0.152   5.215  1.00  0.00    -0.275 OA
ATOM     52  H   UNL     1       5.705   2.704   5.034  1.00  0.00     0.159 HD
ATOM     53  H   UNL     1       7.183   2.556   4.018  1.00  0.00     0.159 HD
ENDBRANCH  48  49
ENDBRANCH  43  48
ENDBRANCH  40  43
ENDBRANCH  38  39
BRANCH  38  54
ATOM     54  CB  HIS A   5       4.415  -3.226   0.283  1.00  0.00     0.093 C 
BRANCH  54  55
ATOM     55  CG  HIS A   5       5.114  -3.372  -1.041  1.00  0.00     0.061 A 
ATOM     56  ND1 HIS A   5       4.607  -4.077  -2.078  1.00  0.00    -0.242 NA
ATOM     57  CD2 HIS A   5       6.344  -2.853  -1.388  1.00  0.00     0.107 A 
ATOM     58  CE1 HIS A   5       5.543  -3.955  -3.043  1.00  0.00     0.196 A 
ATOM     59  NE2 HIS A   5       6.600  -3.214  -2.656  1.00  0.00    -0.351 N 
ATOM     60  H   UNL     1       7.445  -2.979  -3.220  1.00  0.00     0.167 HD
ENDBRANCH  54  55
ENDBRANCH  38  54
ENDBRANCH  35  38
ENDBRANCH  33  34
BRANCH  33  61
ATOM     61  CB  SER A   4       3.002   1.854  -1.876  1.00  0.00     0.191 C 
BRANCH  61  62
ATOM     62  OG  SER A   4       2.658   2.540  -3.051  1.00  0.00    -0.394 OA
ATOM     63  H   UNL     1       2.835   1.916  -3.805  1.00  0.00     0.210 HD
ENDBRANCH  61  62
ENDBRANCH  33  61
ENDBRANCH   3  33
TORSDOF 25
