REMARK SMILES CC(C)C[C@H](NC(=O)[C@H](Cc1c[nH]cn1)NC(=O)[C@H](Cc1ccccc1)NC(=O)[C@@H](N)CO)C(=O)N[C@@H](CCCNC(=N)N)C(=O)N[C@@H](CCCNC(=N)N)C(=O)O
REMARK SMILES IDX 34 1 35 2 36 3 5 5 6 6 7 7 8 8 9 10 16 11 17 12 18 13 19 15
REMARK SMILES IDX 27 16 28 17 29 18 30 20 31 21 32 24 33 25 20 27 21 28 22 29
REMARK SMILES IDX 26 30 23 31 25 32 24 33 10 34 11 35 15 36 12 37 14 38 13 39
REMARK SMILES IDX 4 41 2 42 1 43 3 44 37 45 45 46 47 47 46 48 48 50 56 51
REMARK SMILES IDX 57 52 58 53 49 55 50 56 51 57 52 58 53 59 55 60 54 64 38 66
REMARK SMILES IDX 39 67 40 68 41 69 42 70 44 71 43 75
REMARK H PARENT 36 4 6 9 16 14 27 19 31 22 31 23 33 26 13 40 47 49 58 54 52 61
REMARK H PARENT 55 62 55 63 54 65 41 72 44 73 44 74 43 76
ROOT
ATOM      1  C   LEU A   4      22.713   9.215  -8.519  1.00  0.00     0.243 C 
ATOM      2  O   LEU A   4      22.877  10.031  -9.467  1.00  0.00    -0.273 OA
ATOM      3  N   ARG A   5      23.821   8.720  -7.783  1.00  0.00    -0.343 N 
ATOM      4  H   UNL     1      23.665   8.030  -7.012  1.00  0.00     0.164 HD
ENDROOT
BRANCH   1   5
ATOM      5  CA  LEU A   4      21.347   8.759  -8.139  1.00  0.00     0.171 C 
BRANCH   5   6
ATOM      6  N   LEU A   4      20.563   9.921  -7.772  1.00  0.00    -0.342 N 
ATOM      7  C   HIS A   3      20.052  10.096  -6.459  1.00  0.00     0.243 C 
ATOM      8  O   HIS A   3      20.172   9.184  -5.594  1.00  0.00    -0.273 OA
ATOM      9  H   UNL     1      20.395  10.659  -8.494  1.00  0.00     0.164 HD
BRANCH   7  10
ATOM     10  CA  HIS A   3      19.346  11.368  -6.131  1.00  0.00     0.177 C 
BRANCH  10  11
ATOM     11  N   HIS A   3      18.088  11.043  -5.510  1.00  0.00    -0.342 N 
ATOM     12  C   PHE A   2      16.887  11.749  -5.774  1.00  0.00     0.243 C 
ATOM     13  O   PHE A   2      16.903  12.794  -6.482  1.00  0.00    -0.273 OA
ATOM     14  H   UNL     1      18.163  10.479  -4.639  1.00  0.00     0.164 HD
BRANCH  12  15
ATOM     15  CA  PHE A   2      15.651  11.313  -5.060  1.00  0.00     0.175 C 
BRANCH  15  16
ATOM     16  N   PHE A   2      14.453  11.740  -5.769  1.00  0.00    -0.343 N 
ATOM     17  C   SER A   1      13.914  13.050  -5.636  1.00  0.00     0.239 C 
ATOM     18  O   SER A   1      14.449  13.868  -4.838  1.00  0.00    -0.273 OA
ATOM     19  H   UNL     1      13.866  11.000  -6.212  1.00  0.00     0.164 HD
BRANCH  17  20
ATOM     20  CA  SER A   1      12.654  13.411  -6.385  1.00  0.00     0.167 C 
BRANCH  20  21
ATOM     21  N   SER A   1      12.468  14.864  -6.382  1.00  0.00    -0.318 NA
ATOM     22  H   UNL     1      11.564  15.088  -6.857  1.00  0.00     0.119 HD
ATOM     23  H   UNL     1      12.337  15.180  -5.393  1.00  0.00     0.119 HD
ENDBRANCH  20  21
BRANCH  20  24
ATOM     24  CB  SER A   1      12.696  12.894  -7.842  1.00  0.00     0.184 C 
BRANCH  24  25
ATOM     25  OG  SER A   1      11.440  13.036  -8.447  1.00  0.00    -0.394 OA
ATOM     26  H   UNL     1      11.454  13.890  -8.953  1.00  0.00     0.210 HD
ENDBRANCH  24  25
ENDBRANCH  20  24
ENDBRANCH  17  20
ENDBRANCH  15  16
BRANCH  15  27
ATOM     27  CB  PHE A   2      15.612   9.774  -4.889  1.00  0.00     0.070 C 
BRANCH  27  28
ATOM     28  CG  PHE A   2      14.442   9.290  -4.091  1.00  0.00    -0.045 A 
ATOM     29  CD1 PHE A   2      13.902  10.047  -3.033  1.00  0.00     0.004 A 
ATOM     30  CD2 PHE A   2      13.967   7.990  -4.310  1.00  0.00     0.004 A 
ATOM     31  CE1 PHE A   2      12.868   9.536  -2.260  1.00  0.00     0.000 A 
ATOM     32  CE2 PHE A   2      12.939   7.477  -3.521  1.00  0.00     0.000 A 
ATOM     33  CZ  PHE A   2      12.386   8.252  -2.501  1.00  0.00     0.000 A 
ENDBRANCH  27  28
ENDBRANCH  15  27
ENDBRANCH  12  15
ENDBRANCH  10  11
BRANCH  10  34
ATOM     34  CB  HIS A   3      20.174  12.265  -5.201  1.00  0.00     0.093 C 
BRANCH  34  35
ATOM     35  CG  HIS A   3      20.428  11.671  -3.840  1.00  0.00     0.061 A 
ATOM     36  ND1 HIS A   3      21.499  10.908  -3.540  1.00  0.00    -0.242 NA
ATOM     37  CD2 HIS A   3      19.627  11.811  -2.728  1.00  0.00     0.107 A 
ATOM     38  CE1 HIS A   3      21.321  10.597  -2.239  1.00  0.00     0.196 A 
ATOM     39  NE2 HIS A   3      20.197  11.130  -1.723  1.00  0.00    -0.351 N 
ATOM     40  H   UNL     1      19.843  11.032  -0.746  1.00  0.00     0.167 HD
ENDBRANCH  34  35
ENDBRANCH  10  34
ENDBRANCH   7  10
ENDBRANCH   5   6
BRANCH   5  41
ATOM     41  CB  LEU A   4      20.657   7.999  -9.273  1.00  0.00     0.038 C 
BRANCH  41  42
ATOM     42  CG  LEU A   4      21.450   6.771  -9.771  1.00  0.00    -0.015 C 
ATOM     43  CD1 LEU A   4      21.764   5.779  -8.641  1.00  0.00     0.007 C 
ATOM     44  CD2 LEU A   4      20.661   6.067 -10.878  1.00  0.00     0.007 C 
ENDBRANCH  41  42
ENDBRANCH   5  41
ENDBRANCH   1   5
BRANCH   3  45
ATOM     45  CA  ARG A   5      25.185   9.121  -8.069  1.00  0.00     0.171 C 
BRANCH  45  46
ATOM     46  C   ARG A   5      25.899   7.968  -8.684  1.00  0.00     0.243 C 
ATOM     47  N   ARG A   6      25.927   7.881 -10.101  1.00  0.00    -0.341 N 
ATOM     48  O   ARG A   5      26.441   7.080  -7.971  1.00  0.00    -0.273 OA
ATOM     49  H   UNL     1      25.613   8.723 -10.633  1.00  0.00     0.164 HD
BRANCH  47  50
ATOM     50  CA  ARG A   6      26.537   6.767 -10.816  1.00  0.00     0.192 C 
BRANCH  50  51
ATOM     51  C   ARG A   6      27.986   6.641 -10.428  1.00  0.00     0.326 C 
ATOM     52  O   ARG A   6      28.795   7.575 -10.678  1.00  0.00    -0.250 OA
BRANCH  51  53
ATOM     53  OXT ARG A   6      28.435   5.487  -9.794  1.00  0.00    -0.480 OA
ATOM     54  H   UNL     1      29.407   5.386  -9.526  1.00  0.00     0.296 HD
ENDBRANCH  51  53
ENDBRANCH  50  51
BRANCH  50  55
ATOM     55  CB  ARG A   6      26.420   6.992 -12.334  1.00  0.00     0.039 C 
BRANCH  55  56
ATOM     56  CG  ARG A   6      24.959   7.125 -12.801  1.00  0.00     0.024 C 
BRANCH  56  57
ATOM     57  CD  ARG A   6      24.856   7.206 -14.329  1.00  0.00     0.116 C 
BRANCH  57  58
ATOM     58  NE  ARG A   6      25.513   8.409 -14.841  1.00  0.00    -0.357 N 
ATOM     59  CZ  ARG A   6      24.957   9.726 -14.706  1.00  0.00     0.185 C 
ATOM     60  NH2 ARG A   6      25.690  10.855 -15.187  1.00  0.00    -0.370 N 
ATOM     61  H   UNL     1      26.410   8.296 -15.364  1.00  0.00     0.163 HD
ATOM     62  H   UNL     1      25.304  11.821 -15.103  1.00  0.00     0.159 HD
ATOM     63  H   UNL     1      26.628  10.727 -15.627  1.00  0.00     0.159 HD
BRANCH  59  64
ATOM     64  NH1 ARG A   6      23.793   9.893 -14.161  1.00  0.00    -0.270 NA
ATOM     65  H   UNL     1      23.367  10.841 -14.054  1.00  0.00     0.191 HD
ENDBRANCH  59  64
ENDBRANCH  57  58
ENDBRANCH  56  57
ENDBRANCH  55  56
ENDBRANCH  50  55
ENDBRANCH  47  50
ENDBRANCH  45  46
BRANCH  45  66
ATOM     66  CB  ARG A   5      25.862   9.603  -6.792  1.00  0.00     0.037 C 
BRANCH  66  67
ATOM     67  CG  ARG A   5      25.166  10.859  -6.268  1.00  0.00     0.024 C 
BRANCH  67  68
ATOM     68  CD  ARG A   5      25.840  11.390  -5.012  1.00  0.00     0.116 C 
BRANCH  68  69
ATOM     69  NE  ARG A   5      25.375  10.687  -3.819  1.00  0.00    -0.357 N 
ATOM     70  CZ  ARG A   5      25.468  11.282  -2.526  1.00  0.00     0.185 C 
ATOM     71  NH2 ARG A   5      26.108  12.546  -2.351  1.00  0.00    -0.370 N 
ATOM     72  H   UNL     1      24.890   9.765  -3.911  1.00  0.00     0.163 HD
ATOM     73  H   UNL     1      26.698  12.981  -3.092  1.00  0.00     0.159 HD
ATOM     74  H   UNL     1      26.082  13.022  -1.422  1.00  0.00     0.159 HD
BRANCH  70  75
ATOM     75  NH1 ARG A   5      24.955  10.671  -1.506  1.00  0.00    -0.270 NA
ATOM     76  H   UNL     1      24.997  11.075  -0.543  1.00  0.00     0.191 HD
ENDBRANCH  70  75
ENDBRANCH  68  69
ENDBRANCH  67  68
ENDBRANCH  66  67
ENDBRANCH  45  66
ENDBRANCH   3  45
TORSDOF 31
