REMARK SMILES CC[C@H](C)[C@H](NC(=O)[C@H](CC(C)C)NC(=O)[C@H](C)NC(=O)[C@@H](N)CO)C(=O)N[C@@H](CCCNC(=N)N)C(=O)N[C@@H](CC(N)=O)C(=O)O
REMARK SMILES IDX 7 1 8 2 6 3 9 5 14 6 15 7 16 8 17 10 18 11 19 12 20 13 21 14
REMARK SMILES IDX 22 16 23 17 24 20 25 21 10 23 11 24 12 25 13 26 5 27 26 28
REMARK SMILES IDX 28 29 27 30 29 32 37 33 39 34 38 35 40 37 45 38 46 39 47 40
REMARK SMILES IDX 41 42 42 43 43 44 44 45 30 48 31 49 32 50 33 51 34 52 36 53
REMARK SMILES IDX 35 57 3 59 4 60 2 61 1 62
REMARK H PARENT 6 4 14 9 19 15 23 18 23 19 25 22 28 31 39 36 47 41 43 46 43 47
REMARK H PARENT 33 54 36 55 36 56 35 58
ROOT
ATOM      1  C   LEU A   3      20.042  10.080  -6.470  1.00  0.00     0.243 C 
ATOM      2  O   LEU A   3      20.157   9.149  -5.626  1.00  0.00    -0.273 OA
ATOM      3  N   ILE A   4      20.579   9.940  -7.774  1.00  0.00    -0.342 N 
ATOM      4  H   UNL     1      20.497  10.739  -8.444  1.00  0.00     0.164 HD
ENDROOT
BRANCH   1   5
ATOM      5  CA  LEU A   3      19.317  11.340  -6.130  1.00  0.00     0.171 C 
BRANCH   5   6
ATOM      6  N   LEU A   3      18.056  10.998  -5.519  1.00  0.00    -0.343 N 
ATOM      7  C   ALA A   2      16.867  11.743  -5.737  1.00  0.00     0.242 C 
ATOM      8  O   ALA A   2      16.893  12.792  -6.440  1.00  0.00    -0.273 OA
ATOM      9  H   UNL     1      18.080  10.280  -4.763  1.00  0.00     0.164 HD
BRANCH   7  10
ATOM     10  CA  ALA A   2      15.612  11.295  -5.039  1.00  0.00     0.168 C 
ATOM     11  CB  ALA A   2      15.558   9.764  -4.897  1.00  0.00     0.041 C 
BRANCH  10  12
ATOM     12  N   ALA A   2      14.435  11.733  -5.768  1.00  0.00    -0.343 N 
ATOM     13  C   SER A   1      13.907  13.047  -5.639  1.00  0.00     0.239 C 
ATOM     14  O   SER A   1      14.447  13.865  -4.843  1.00  0.00    -0.273 OA
ATOM     15  H   UNL     1      13.846  10.999  -6.220  1.00  0.00     0.164 HD
BRANCH  13  16
ATOM     16  CA  SER A   1      12.652  13.412  -6.391  1.00  0.00     0.167 C 
BRANCH  16  17
ATOM     17  N   SER A   1      12.467  14.865  -6.384  1.00  0.00    -0.318 NA
ATOM     18  H   UNL     1      12.300  15.173  -5.398  1.00  0.00     0.119 HD
ATOM     19  H   UNL     1      11.584  15.094  -6.896  1.00  0.00     0.119 HD
ENDBRANCH  16  17
BRANCH  16  20
ATOM     20  CB  SER A   1      12.697  12.901  -7.849  1.00  0.00     0.184 C 
BRANCH  20  21
ATOM     21  OG  SER A   1      11.437  13.042  -8.443  1.00  0.00    -0.394 OA
ATOM     22  H   UNL     1      11.547  12.787  -9.396  1.00  0.00     0.210 HD
ENDBRANCH  20  21
ENDBRANCH  16  20
ENDBRANCH  13  16
ENDBRANCH  10  12
ENDBRANCH   7  10
ENDBRANCH   5   6
BRANCH   5  23
ATOM     23  CB  LEU A   3      20.146  12.245  -5.210  1.00  0.00     0.038 C 
BRANCH  23  24
ATOM     24  CG  LEU A   3      20.411  11.673  -3.790  1.00  0.00    -0.015 C 
ATOM     25  CD1 LEU A   3      21.813  12.069  -3.319  1.00  0.00     0.007 C 
ATOM     26  CD2 LEU A   3      19.362  12.155  -2.779  1.00  0.00     0.007 C 
ENDBRANCH  23  24
ENDBRANCH   5  23
ENDBRANCH   1   5
BRANCH   3  27
ATOM     27  CA  ILE A   4      21.345   8.773  -8.167  1.00  0.00     0.174 C 
BRANCH  27  28
ATOM     28  C   ILE A   4      22.719   9.217  -8.535  1.00  0.00     0.243 C 
ATOM     29  N   ARG A   5      23.821   8.720  -7.790  1.00  0.00    -0.343 N 
ATOM     30  O   ILE A   4      22.895  10.047  -9.468  1.00  0.00    -0.273 OA
ATOM     31  H   UNL     1      23.660   8.030  -7.021  1.00  0.00     0.164 HD
BRANCH  29  32
ATOM     32  CA  ARG A   5      25.186   9.120  -8.071  1.00  0.00     0.171 C 
BRANCH  32  33
ATOM     33  C   ARG A   5      25.900   7.967  -8.685  1.00  0.00     0.243 C 
ATOM     34  N   ASN A   6      25.913   7.864 -10.102  1.00  0.00    -0.341 N 
ATOM     35  O   ARG A   5      26.448   7.086  -7.969  1.00  0.00    -0.273 OA
ATOM     36  H   UNL     1      25.488   8.646 -10.650  1.00  0.00     0.164 HD
BRANCH  34  37
ATOM     37  CA  ASN A   6      26.542   6.750 -10.804  1.00  0.00     0.201 C 
BRANCH  37  38
ATOM     38  C   ASN A   6      27.993   6.642 -10.416  1.00  0.00     0.326 C 
ATOM     39  O   ASN A   6      28.794   7.579 -10.677  1.00  0.00    -0.250 OA
BRANCH  38  40
ATOM     40  OXT ASN A   6      28.452   5.499  -9.769  1.00  0.00    -0.480 OA
ATOM     41  H   UNL     1      29.424   5.409  -9.500  1.00  0.00     0.296 HD
ENDBRANCH  38  40
ENDBRANCH  37  38
BRANCH  37  42
ATOM     42  CB  ASN A   6      26.424   6.947 -12.323  1.00  0.00     0.136 C 
BRANCH  42  43
ATOM     43  CG  ASN A   6      25.010   7.181 -12.773  1.00  0.00     0.220 C 
ATOM     44  ND2 ASN A   6      24.753   8.091 -13.833  1.00  0.00    -0.370 N 
ATOM     45  OD1 ASN A   6      24.053   6.558 -12.243  1.00  0.00    -0.275 OA
ATOM     46  H   UNL     1      23.775   8.259 -14.156  1.00  0.00     0.159 HD
ATOM     47  H   UNL     1      25.533   8.601 -14.306  1.00  0.00     0.159 HD
ENDBRANCH  42  43
ENDBRANCH  37  42
ENDBRANCH  34  37
ENDBRANCH  32  33
BRANCH  32  48
ATOM     48  CB  ARG A   5      25.861   9.602  -6.792  1.00  0.00     0.037 C 
BRANCH  48  49
ATOM     49  CG  ARG A   5      25.165  10.858  -6.269  1.00  0.00     0.024 C 
BRANCH  49  50
ATOM     50  CD  ARG A   5      25.839  11.391  -5.013  1.00  0.00     0.116 C 
BRANCH  50  51
ATOM     51  NE  ARG A   5      25.378  10.686  -3.820  1.00  0.00    -0.357 N 
ATOM     52  CZ  ARG A   5      25.469  11.281  -2.526  1.00  0.00     0.185 C 
ATOM     53  NH2 ARG A   5      26.107  12.546  -2.351  1.00  0.00    -0.370 N 
ATOM     54  H   UNL     1      24.894   9.763  -3.911  1.00  0.00     0.163 HD
ATOM     55  H   UNL     1      26.080  13.024  -1.423  1.00  0.00     0.159 HD
ATOM     56  H   UNL     1      26.697  12.982  -3.093  1.00  0.00     0.159 HD
BRANCH  52  57
ATOM     57  NH1 ARG A   5      24.954  10.672  -1.507  1.00  0.00    -0.270 NA
ATOM     58  H   UNL     1      24.995  11.077  -0.545  1.00  0.00     0.191 HD
ENDBRANCH  52  57
ENDBRANCH  50  51
ENDBRANCH  49  50
ENDBRANCH  48  49
ENDBRANCH  32  48
ENDBRANCH  29  32
ENDBRANCH  27  28
BRANCH  27  59
ATOM     59  CB  ILE A   4      20.628   7.977  -9.284  1.00  0.00     0.018 C 
ATOM     60  CG1 ILE A   4      20.218   8.831 -10.500  1.00  0.00     0.010 C 
BRANCH  59  61
ATOM     61  CG2 ILE A   4      21.453   6.763  -9.763  1.00  0.00     0.002 C 
ATOM     62  CD1 ILE A   4      21.770   5.775  -8.641  1.00  0.00     0.004 C 
ENDBRANCH  59  61
ENDBRANCH  27  59
ENDBRANCH   3  27
TORSDOF 26
