REMARK SMILES CC(C)C[C@H](NC(=O)[C@H](CCC(N)=O)NC(=O)CNC(=O)[C@@H](N)CO)C(=O)N[C@@H](CCCNC(=N)N)C(=O)N[C@@H](CC(N)=O)C(=O)O
REMARK SMILES IDX 7 1 8 2 6 3 9 5 15 6 16 7 17 8 18 10 19 11 20 12 21 13 22 15
REMARK SMILES IDX 23 16 24 19 25 20 10 22 11 23 12 24 13 25 14 26 5 29 26 30
REMARK SMILES IDX 28 31 27 32 29 34 37 35 39 36 38 37 40 39 45 40 46 41 47 42
REMARK SMILES IDX 41 44 42 45 43 46 44 47 30 50 31 51 32 52 33 53 34 54 36 55
REMARK SMILES IDX 35 59 4 61 2 62 1 63 3 64
REMARK H PARENT 6 4 15 9 19 14 23 17 23 18 25 21 13 27 13 28 28 33 39 38 47 43
REMARK H PARENT 43 48 43 49 33 56 36 57 36 58 35 60
ROOT
ATOM      1  C   GLN A   3      20.030  10.071  -6.470  1.00  0.00     0.243 C 
ATOM      2  O   GLN A   3      20.139   9.138  -5.628  1.00  0.00    -0.273 OA
ATOM      3  N   LEU A   4      20.569   9.926  -7.773  1.00  0.00    -0.343 N 
ATOM      4  H   UNL     1      20.413  10.675  -8.486  1.00  0.00     0.164 HD
ENDROOT
BRANCH   1   5
ATOM      5  CA  GLN A   3      19.301  11.328  -6.127  1.00  0.00     0.171 C 
BRANCH   5   6
ATOM      6  N   GLN A   3      18.034  10.989  -5.516  1.00  0.00    -0.343 N 
ATOM      7  C   GLY A   2      16.864  11.757  -5.733  1.00  0.00     0.240 C 
ATOM      8  O   GLY A   2      16.898  12.802  -6.442  1.00  0.00    -0.273 OA
ATOM      9  H   UNL     1      18.009  10.247  -4.778  1.00  0.00     0.164 HD
BRANCH   7  10
ATOM     10  CA  GLY A   2      15.628  11.328  -5.021  1.00  0.00     0.216 C 
BRANCH  10  11
ATOM     11  N   GLY A   2      14.437  11.725  -5.741  1.00  0.00    -0.346 N 
ATOM     12  C   SER A   1      13.909  13.043  -5.629  1.00  0.00     0.239 C 
ATOM     13  O   SER A   1      14.447  13.868  -4.839  1.00  0.00    -0.273 OA
ATOM     14  H   UNL     1      13.853  10.960  -6.144  1.00  0.00     0.164 HD
BRANCH  12  15
ATOM     15  CA  SER A   1      12.658  13.407  -6.385  1.00  0.00     0.167 C 
BRANCH  15  16
ATOM     16  N   SER A   1      12.455  14.858  -6.404  1.00  0.00    -0.318 NA
ATOM     17  H   UNL     1      13.318  15.330  -6.762  1.00  0.00     0.119 HD
ATOM     18  H   UNL     1      12.287  15.193  -5.427  1.00  0.00     0.119 HD
ENDBRANCH  15  16
BRANCH  15  19
ATOM     19  CB  SER A   1      12.691  12.875  -7.834  1.00  0.00     0.184 C 
BRANCH  19  20
ATOM     20  OG  SER A   1      11.443  13.047  -8.447  1.00  0.00    -0.394 OA
ATOM     21  H   UNL     1      10.839  12.356  -8.066  1.00  0.00     0.210 HD
ENDBRANCH  19  20
ENDBRANCH  15  19
ENDBRANCH  12  15
ENDBRANCH  10  11
ENDBRANCH   7  10
ENDBRANCH   5   6
BRANCH   5  22
ATOM     22  CB  GLN A   3      20.120  12.245  -5.213  1.00  0.00     0.045 C 
BRANCH  22  23
ATOM     23  CG  GLN A   3      20.474  11.628  -3.840  1.00  0.00     0.102 C 
BRANCH  23  24
ATOM     24  CD  GLN A   3      21.730  12.193  -3.238  1.00  0.00     0.217 C 
ATOM     25  NE2 GLN A   3      22.862  12.573  -4.020  1.00  0.00    -0.370 N 
ATOM     26  OE1 GLN A   3      21.782  12.338  -1.988  1.00  0.00    -0.275 OA
ATOM     27  H   UNL     1      22.974  12.286  -5.013  1.00  0.00     0.159 HD
ATOM     28  H   UNL     1      23.620  13.143  -3.584  1.00  0.00     0.159 HD
ENDBRANCH  23  24
ENDBRANCH  22  23
ENDBRANCH   5  22
ENDBRANCH   1   5
BRANCH   3  29
ATOM     29  CA  LEU A   4      21.351   8.763  -8.143  1.00  0.00     0.171 C 
BRANCH  29  30
ATOM     30  C   LEU A   4      22.716   9.217  -8.523  1.00  0.00     0.243 C 
ATOM     31  N   ARG A   5      23.825   8.721  -7.786  1.00  0.00    -0.343 N 
ATOM     32  O   LEU A   4      22.881  10.033  -9.470  1.00  0.00    -0.273 OA
ATOM     33  H   UNL     1      23.669   8.033  -7.015  1.00  0.00     0.164 HD
BRANCH  31  34
ATOM     34  CA  ARG A   5      25.189   9.120  -8.076  1.00  0.00     0.171 C 
BRANCH  34  35
ATOM     35  C   ARG A   5      25.900   7.966  -8.688  1.00  0.00     0.243 C 
ATOM     36  N   ASN A   6      25.913   7.863 -10.104  1.00  0.00    -0.341 N 
ATOM     37  O   ARG A   5      26.447   7.084  -7.971  1.00  0.00    -0.273 OA
ATOM     38  H   UNL     1      25.489   8.646 -10.653  1.00  0.00     0.164 HD
BRANCH  36  39
ATOM     39  CA  ASN A   6      26.542   6.750 -10.805  1.00  0.00     0.201 C 
BRANCH  39  40
ATOM     40  C   ASN A   6      27.993   6.642 -10.417  1.00  0.00     0.326 C 
ATOM     41  O   ASN A   6      28.794   7.579 -10.677  1.00  0.00    -0.250 OA
BRANCH  40  42
ATOM     42  OXT ASN A   6      28.452   5.498  -9.770  1.00  0.00    -0.480 OA
ATOM     43  H   UNL     1      29.425   5.409  -9.501  1.00  0.00     0.296 HD
ENDBRANCH  40  42
ENDBRANCH  39  40
BRANCH  39  44
ATOM     44  CB  ASN A   6      26.425   6.946 -12.324  1.00  0.00     0.136 C 
BRANCH  44  45
ATOM     45  CG  ASN A   6      25.010   7.180 -12.774  1.00  0.00     0.220 C 
ATOM     46  ND2 ASN A   6      24.753   8.090 -13.834  1.00  0.00    -0.370 N 
ATOM     47  OD1 ASN A   6      24.053   6.558 -12.243  1.00  0.00    -0.275 OA
ATOM     48  H   UNL     1      23.774   8.258 -14.156  1.00  0.00     0.159 HD
ATOM     49  H   UNL     1      25.533   8.600 -14.306  1.00  0.00     0.159 HD
ENDBRANCH  44  45
ENDBRANCH  39  44
ENDBRANCH  36  39
ENDBRANCH  34  35
BRANCH  34  50
ATOM     50  CB  ARG A   5      25.872   9.601  -6.801  1.00  0.00     0.037 C 
BRANCH  50  51
ATOM     51  CG  ARG A   5      25.176  10.849  -6.269  1.00  0.00     0.024 C 
BRANCH  51  52
ATOM     52  CD  ARG A   5      25.858  11.377  -5.014  1.00  0.00     0.116 C 
BRANCH  52  53
ATOM     53  NE  ARG A   5      25.384  10.683  -3.819  1.00  0.00    -0.357 N 
ATOM     54  CZ  ARG A   5      25.477  11.277  -2.525  1.00  0.00     0.185 C 
ATOM     55  NH2 ARG A   5      26.114  12.543  -2.350  1.00  0.00    -0.370 N 
ATOM     56  H   UNL     1      24.898   9.761  -3.910  1.00  0.00     0.163 HD
ATOM     57  H   UNL     1      26.080  13.024  -1.424  1.00  0.00     0.159 HD
ATOM     58  H   UNL     1      26.708  12.976  -3.089  1.00  0.00     0.159 HD
BRANCH  54  59
ATOM     59  NH1 ARG A   5      24.956  10.671  -1.506  1.00  0.00    -0.270 NA
ATOM     60  H   UNL     1      24.994  11.078  -0.545  1.00  0.00     0.191 HD
ENDBRANCH  54  59
ENDBRANCH  52  53
ENDBRANCH  51  52
ENDBRANCH  50  51
ENDBRANCH  34  50
ENDBRANCH  31  34
ENDBRANCH  29  30
BRANCH  29  61
ATOM     61  CB  LEU A   4      20.656   8.002  -9.274  1.00  0.00     0.038 C 
BRANCH  61  62
ATOM     62  CG  LEU A   4      21.448   6.772  -9.769  1.00  0.00    -0.015 C 
ATOM     63  CD1 LEU A   4      21.762   5.780  -8.639  1.00  0.00     0.007 C 
ATOM     64  CD2 LEU A   4      20.661   6.068 -10.877  1.00  0.00     0.007 C 
ENDBRANCH  61  62
ENDBRANCH  29  61
ENDBRANCH   3  29
TORSDOF 27
