REMARK SMILES C[C@H](NC(=O)[C@H](CC(N)=O)NC(=O)[C@H](Cc1ccccc1)NC(=O)[C@@H](N)CO)C(=O)N[C@@H](CCCNC(=N)N)C(=O)N[C@@H](CC(N)=O)C(=O)O
REMARK SMILES IDX 4 1 5 2 3 3 6 5 11 6 12 7 13 8 14 10 22 11 23 12 24 13 25 15
REMARK SMILES IDX 26 16 27 19 28 20 15 22 16 23 17 24 21 25 18 26 20 27 19 28
REMARK SMILES IDX 7 29 8 30 9 31 10 32 2 35 1 36 29 37 31 38 30 39 32 41 40 42
REMARK SMILES IDX 42 43 41 44 43 46 48 47 49 48 50 49 44 51 45 52 46 53 47 54
REMARK SMILES IDX 33 57 34 58 35 59 36 60 37 61 39 62 38 66
REMARK H PARENT 3 4 11 9 22 14 26 17 26 18 28 21 9 33 9 34 31 40 42 45 50 50
REMARK H PARENT 46 55 46 56 36 63 39 64 39 65 38 67
ROOT
ATOM      1  C   ASN A   3      -1.336   0.134   0.138  1.00  0.00     0.243 C 
ATOM      2  O   ASN A   3      -0.985   0.969   1.016  1.00  0.00    -0.273 OA
ATOM      3  N   ALA A   4      -0.614  -1.098  -0.021  1.00  0.00    -0.343 N 
ATOM      4  H   UNL     1      -0.938  -1.771  -0.753  1.00  0.00     0.164 HD
ENDROOT
BRANCH   1   5
ATOM      5  CA  ASN A   3      -2.483   0.449  -0.789  1.00  0.00     0.180 C 
BRANCH   5   6
ATOM      6  N   ASN A   3      -3.499   1.261  -0.107  1.00  0.00    -0.342 N 
ATOM      7  C   PHE A   2      -4.896   0.925  -0.103  1.00  0.00     0.243 C 
ATOM      8  O   PHE A   2      -5.317  -0.062  -0.768  1.00  0.00    -0.273 OA
ATOM      9  H   UNL     1      -3.202   2.141   0.373  1.00  0.00     0.164 HD
BRANCH   7  10
ATOM     10  CA  PHE A   2      -5.853   1.719   0.748  1.00  0.00     0.175 C 
BRANCH  10  11
ATOM     11  N   PHE A   2      -7.234   1.533   0.285  1.00  0.00    -0.343 N 
ATOM     12  C   SER A   1      -7.763   2.257  -0.836  1.00  0.00     0.239 C 
ATOM     13  O   SER A   1      -7.064   3.139  -1.408  1.00  0.00    -0.273 OA
ATOM     14  H   UNL     1      -7.807   0.760   0.685  1.00  0.00     0.164 HD
BRANCH  12  15
ATOM     15  CA  SER A   1      -9.151   1.959  -1.349  1.00  0.00     0.167 C 
BRANCH  15  16
ATOM     16  N   SER A   1      -9.986   3.162  -1.322  1.00  0.00    -0.318 NA
ATOM     17  H   UNL     1      -9.534   3.917  -1.892  1.00  0.00     0.119 HD
ATOM     18  H   UNL     1     -10.046   3.509  -0.334  1.00  0.00     0.119 HD
ENDBRANCH  15  16
BRANCH  15  19
ATOM     19  CB  SER A   1      -9.084   1.385  -2.773  1.00  0.00     0.184 C 
BRANCH  19  20
ATOM     20  OG  SER A   1     -10.359   0.989  -3.202  1.00  0.00    -0.394 OA
ATOM     21  H   UNL     1     -10.828   1.808  -3.503  1.00  0.00     0.210 HD
ENDBRANCH  19  20
ENDBRANCH  15  19
ENDBRANCH  12  15
ENDBRANCH  10  11
BRANCH  10  22
ATOM     22  CB  PHE A   2      -5.707   1.372   2.247  1.00  0.00     0.070 C 
BRANCH  22  23
ATOM     23  CG  PHE A   2      -5.939  -0.088   2.564  1.00  0.00    -0.045 A 
ATOM     24  CD1 PHE A   2      -4.896  -1.022   2.429  1.00  0.00     0.004 A 
ATOM     25  CD2 PHE A   2      -7.200  -0.530   3.004  1.00  0.00     0.004 A 
ATOM     26  CE1 PHE A   2      -5.116  -2.375   2.712  1.00  0.00     0.000 A 
ATOM     27  CE2 PHE A   2      -7.416  -1.883   3.282  1.00  0.00     0.000 A 
ATOM     28  CZ  PHE A   2      -6.376  -2.804   3.139  1.00  0.00     0.000 A 
ENDBRANCH  22  23
ENDBRANCH  10  22
ENDBRANCH   7  10
ENDBRANCH   5   6
BRANCH   5  29
ATOM     29  CB  ASN A   3      -1.991   1.144  -2.070  1.00  0.00     0.134 C 
BRANCH  29  30
ATOM     30  CG  ASN A   3      -1.420   2.512  -1.813  1.00  0.00     0.220 C 
ATOM     31  ND2 ASN A   3      -0.048   2.673  -1.450  1.00  0.00    -0.370 N 
ATOM     32  OD1 ASN A   3      -2.167   3.526  -1.908  1.00  0.00    -0.275 OA
ATOM     33  H   UNL     1       0.584   1.846  -1.360  1.00  0.00     0.159 HD
ATOM     34  H   UNL     1       0.331   3.626  -1.247  1.00  0.00     0.159 HD
ENDBRANCH  29  30
ENDBRANCH   5  29
ENDBRANCH   1   5
BRANCH   3  35
ATOM     35  CA  ALA A   4       0.685  -1.349   0.613  1.00  0.00     0.168 C 
ATOM     36  CB  ALA A   4       0.757  -2.805   1.077  1.00  0.00     0.041 C 
BRANCH  35  37
ATOM     37  C   ALA A   4       1.808  -1.053  -0.348  1.00  0.00     0.242 C 
ATOM     38  N   ARG A   5       3.163  -1.047   0.123  1.00  0.00    -0.343 N 
ATOM     39  O   ALA A   4       1.560  -0.842  -1.566  1.00  0.00    -0.273 OA
ATOM     40  H   UNL     1       3.325  -1.076   1.155  1.00  0.00     0.164 HD
BRANCH  38  41
ATOM     41  CA  ARG A   5       4.309  -0.884  -0.780  1.00  0.00     0.171 C 
BRANCH  41  42
ATOM     42  C   ARG A   5       5.473  -1.739  -0.339  1.00  0.00     0.243 C 
ATOM     43  N   ASN A   6       6.360  -2.293  -1.323  1.00  0.00    -0.341 N 
ATOM     44  O   ARG A   5       5.687  -1.934   0.890  1.00  0.00    -0.273 OA
ATOM     45  H   UNL     1       6.171  -2.097  -2.333  1.00  0.00     0.164 HD
BRANCH  43  46
ATOM     46  CA  ASN A   6       7.564  -3.052  -0.976  1.00  0.00     0.201 C 
BRANCH  46  47
ATOM     47  C   ASN A   6       8.778  -2.253  -1.360  1.00  0.00     0.326 C 
ATOM     48  O   ASN A   6       8.955  -1.896  -2.557  1.00  0.00    -0.250 OA
BRANCH  47  49
ATOM     49  OXT ASN A   6       9.712  -1.908  -0.385  1.00  0.00    -0.480 OA
ATOM     50  H   UNL     1      10.538  -1.372  -0.624  1.00  0.00     0.296 HD
ENDBRANCH  47  49
ENDBRANCH  46  47
BRANCH  46  51
ATOM     51  CB  ASN A   6       7.534  -4.417  -1.686  1.00  0.00     0.136 C 
BRANCH  51  52
ATOM     52  CG  ASN A   6       8.711  -5.272  -1.307  1.00  0.00     0.220 C 
ATOM     53  ND2 ASN A   6       9.760  -5.519  -2.245  1.00  0.00    -0.370 N 
ATOM     54  OD1 ASN A   6       8.784  -5.757  -0.146  1.00  0.00    -0.275 OA
ATOM     55  H   UNL     1       9.719  -5.127  -3.212  1.00  0.00     0.159 HD
ATOM     56  H   UNL     1      10.578  -6.108  -1.973  1.00  0.00     0.159 HD
ENDBRANCH  51  52
ENDBRANCH  46  51
ENDBRANCH  43  46
ENDBRANCH  41  42
BRANCH  41  57
ATOM     57  CB  ARG A   5       4.702   0.600  -0.905  1.00  0.00     0.037 C 
BRANCH  57  58
ATOM     58  CG  ARG A   5       5.145   1.241   0.421  1.00  0.00     0.024 C 
BRANCH  58  59
ATOM     59  CD  ARG A   5       5.468   2.729   0.229  1.00  0.00     0.116 C 
BRANCH  59  60
ATOM     60  NE  ARG A   5       5.946   3.319   1.480  1.00  0.00    -0.357 N 
ATOM     61  CZ  ARG A   5       5.080   3.619   2.585  1.00  0.00     0.185 C 
ATOM     62  NH2 ARG A   5       5.630   4.158   3.789  1.00  0.00    -0.370 N 
ATOM     63  H   UNL     1       6.959   3.570   1.552  1.00  0.00     0.163 HD
ATOM     64  H   UNL     1       5.020   4.383   4.606  1.00  0.00     0.159 HD
ATOM     65  H   UNL     1       6.654   4.346   3.863  1.00  0.00     0.159 HD
BRANCH  61  66
ATOM     66  NH1 ARG A   5       3.803   3.411   2.493  1.00  0.00    -0.270 NA
ATOM     67  H   UNL     1       3.156   3.629   3.284  1.00  0.00     0.191 HD
ENDBRANCH  61  66
ENDBRANCH  59  60
ENDBRANCH  58  59
ENDBRANCH  57  58
ENDBRANCH  41  57
ENDBRANCH  38  41
ENDBRANCH  35  37
ENDBRANCH   3  35
TORSDOF 26
