REMARK SMILES CC(C)C[C@H](NC(=O)[C@H](CCCCN)NC(=O)CNC(=O)[C@@H](N)CO)C(=O)N[C@@H](CCCNC(=N)N)C(=O)N[C@@H](CC(N)=O)C(=O)O
REMARK SMILES IDX 7 1 8 2 6 3 9 5 15 6 16 7 17 8 18 10 19 11 20 12 21 13 22 15
REMARK SMILES IDX 23 16 24 19 25 20 10 22 11 23 12 24 13 25 14 26 5 29 26 30
REMARK SMILES IDX 28 31 27 32 29 34 37 35 39 36 38 37 40 39 45 40 46 41 47 42
REMARK SMILES IDX 41 44 42 45 43 46 44 47 30 50 31 51 32 52 33 53 34 54 36 55
REMARK SMILES IDX 35 59 4 61 2 62 1 63 3 64
REMARK H PARENT 6 4 15 9 19 14 23 17 23 18 25 21 14 27 14 28 28 33 39 38 47 43
REMARK H PARENT 43 48 43 49 33 56 36 57 36 58 35 60
ROOT
ATOM      1  C   LYS A   3      20.033  10.072  -6.467  1.00  0.00     0.243 C 
ATOM      2  O   LYS A   3      20.162   9.153  -5.612  1.00  0.00    -0.273 OA
ATOM      3  N   LEU A   4      20.565   9.920  -7.773  1.00  0.00    -0.343 N 
ATOM      4  H   UNL     1      20.403  10.664  -8.489  1.00  0.00     0.164 HD
ENDROOT
BRANCH   1   5
ATOM      5  CA  LYS A   3      19.308  11.329  -6.132  1.00  0.00     0.171 C 
BRANCH   5   6
ATOM      6  N   LYS A   3      18.040  10.998  -5.513  1.00  0.00    -0.343 N 
ATOM      7  C   GLY A   2      16.867  11.761  -5.734  1.00  0.00     0.240 C 
ATOM      8  O   GLY A   2      16.900  12.805  -6.445  1.00  0.00    -0.273 OA
ATOM      9  H   UNL     1      18.012  10.250  -4.782  1.00  0.00     0.164 HD
BRANCH   7  10
ATOM     10  CA  GLY A   2      15.629  11.330  -5.024  1.00  0.00     0.216 C 
BRANCH  10  11
ATOM     11  N   GLY A   2      14.437  11.727  -5.744  1.00  0.00    -0.346 N 
ATOM     12  C   SER A   1      13.907  13.044  -5.632  1.00  0.00     0.239 C 
ATOM     13  O   SER A   1      14.447  13.870  -4.845  1.00  0.00    -0.273 OA
ATOM     14  H   UNL     1      13.852  10.960  -6.144  1.00  0.00     0.164 HD
BRANCH  12  15
ATOM     15  CA  SER A   1      12.651  13.406  -6.382  1.00  0.00     0.167 C 
BRANCH  15  16
ATOM     16  N   SER A   1      12.469  14.860  -6.387  1.00  0.00    -0.318 NA
ATOM     17  H   UNL     1      11.586  15.085  -6.900  1.00  0.00     0.119 HD
ATOM     18  H   UNL     1      12.302  15.175  -5.404  1.00  0.00     0.119 HD
ENDBRANCH  15  16
BRANCH  15  19
ATOM     19  CB  SER A   1      12.696  12.882  -7.836  1.00  0.00     0.184 C 
BRANCH  19  20
ATOM     20  OG  SER A   1      11.446  13.031  -8.451  1.00  0.00    -0.394 OA
ATOM     21  H   UNL     1      10.854  12.331  -8.070  1.00  0.00     0.210 HD
ENDBRANCH  19  20
ENDBRANCH  15  19
ENDBRANCH  12  15
ENDBRANCH  10  11
ENDBRANCH   7  10
ENDBRANCH   5   6
BRANCH   5  22
ATOM     22  CB  LYS A   3      20.154  12.236  -5.232  1.00  0.00     0.035 C 
BRANCH  22  23
ATOM     23  CG  LYS A   3      20.379  11.701  -3.804  1.00  0.00     0.004 C 
BRANCH  23  24
ATOM     24  CD  LYS A   3      21.772  12.079  -3.290  1.00  0.00     0.015 C 
BRANCH  24  25
ATOM     25  CE  LYS A   3      21.869  11.950  -1.760  1.00  0.00     0.077 C 
BRANCH  25  26
ATOM     26  NZ  LYS A   3      21.653  10.578  -1.298  1.00  0.00    -0.330 NA
ATOM     27  H   UNL     1      20.634  10.354  -1.363  1.00  0.00     0.118 HD
ATOM     28  H   UNL     1      22.163   9.913  -1.923  1.00  0.00     0.118 HD
ENDBRANCH  25  26
ENDBRANCH  24  25
ENDBRANCH  23  24
ENDBRANCH  22  23
ENDBRANCH   5  22
ENDBRANCH   1   5
BRANCH   3  29
ATOM     29  CA  LEU A   4      21.350   8.759  -8.142  1.00  0.00     0.171 C 
BRANCH  29  30
ATOM     30  C   LEU A   4      22.714   9.216  -8.522  1.00  0.00     0.243 C 
ATOM     31  N   ARG A   5      23.823   8.721  -7.786  1.00  0.00    -0.343 N 
ATOM     32  O   LEU A   4      22.878  10.033  -9.469  1.00  0.00    -0.273 OA
ATOM     33  H   UNL     1      23.667   8.031  -7.016  1.00  0.00     0.164 HD
BRANCH  31  34
ATOM     34  CA  ARG A   5      25.186   9.122  -8.073  1.00  0.00     0.171 C 
BRANCH  34  35
ATOM     35  C   ARG A   5      25.900   7.968  -8.685  1.00  0.00     0.243 C 
ATOM     36  N   ASN A   6      25.913   7.864 -10.102  1.00  0.00    -0.341 N 
ATOM     37  O   ARG A   5      26.447   7.087  -7.969  1.00  0.00    -0.273 OA
ATOM     38  H   UNL     1      25.489   8.647 -10.651  1.00  0.00     0.164 HD
BRANCH  36  39
ATOM     39  CA  ASN A   6      26.542   6.751 -10.804  1.00  0.00     0.201 C 
BRANCH  39  40
ATOM     40  C   ASN A   6      27.993   6.642 -10.416  1.00  0.00     0.326 C 
ATOM     41  O   ASN A   6      28.794   7.579 -10.677  1.00  0.00    -0.250 OA
BRANCH  40  42
ATOM     42  OXT ASN A   6      28.451   5.499  -9.769  1.00  0.00    -0.480 OA
ATOM     43  H   UNL     1      29.424   5.409  -9.500  1.00  0.00     0.296 HD
ENDBRANCH  40  42
ENDBRANCH  39  40
BRANCH  39  44
ATOM     44  CB  ASN A   6      26.424   6.946 -12.323  1.00  0.00     0.136 C 
BRANCH  44  45
ATOM     45  CG  ASN A   6      25.010   7.180 -12.773  1.00  0.00     0.220 C 
ATOM     46  ND2 ASN A   6      24.753   8.090 -13.833  1.00  0.00    -0.370 N 
ATOM     47  OD1 ASN A   6      24.053   6.558 -12.243  1.00  0.00    -0.275 OA
ATOM     48  H   UNL     1      25.533   8.600 -14.306  1.00  0.00     0.159 HD
ATOM     49  H   UNL     1      23.775   8.258 -14.156  1.00  0.00     0.159 HD
ENDBRANCH  44  45
ENDBRANCH  39  44
ENDBRANCH  36  39
ENDBRANCH  34  35
BRANCH  34  50
ATOM     50  CB  ARG A   5      25.863   9.606  -6.796  1.00  0.00     0.037 C 
BRANCH  50  51
ATOM     51  CG  ARG A   5      25.164  10.860  -6.271  1.00  0.00     0.024 C 
BRANCH  51  52
ATOM     52  CD  ARG A   5      25.838  11.393  -5.015  1.00  0.00     0.116 C 
BRANCH  52  53
ATOM     53  NE  ARG A   5      25.381  10.684  -3.823  1.00  0.00    -0.357 N 
ATOM     54  CZ  ARG A   5      25.476  11.276  -2.526  1.00  0.00     0.185 C 
ATOM     55  NH2 ARG A   5      26.098  12.546  -2.351  1.00  0.00    -0.370 N 
ATOM     56  H   UNL     1      24.906   9.757  -3.921  1.00  0.00     0.163 HD
ATOM     57  H   UNL     1      26.076  13.009  -1.415  1.00  0.00     0.159 HD
ATOM     58  H   UNL     1      26.671  12.999  -3.095  1.00  0.00     0.159 HD
BRANCH  54  59
ATOM     59  NH1 ARG A   5      24.993  10.662  -1.495  1.00  0.00    -0.270 NA
ATOM     60  H   UNL     1      24.539   9.725  -1.574  1.00  0.00     0.191 HD
ENDBRANCH  54  59
ENDBRANCH  52  53
ENDBRANCH  51  52
ENDBRANCH  50  51
ENDBRANCH  34  50
ENDBRANCH  31  34
ENDBRANCH  29  30
BRANCH  29  61
ATOM     61  CB  LEU A   4      20.656   7.999  -9.274  1.00  0.00     0.038 C 
BRANCH  61  62
ATOM     62  CG  LEU A   4      21.448   6.770  -9.770  1.00  0.00    -0.015 C 
ATOM     63  CD1 LEU A   4      21.762   5.778  -8.640  1.00  0.00     0.007 C 
ATOM     64  CD2 LEU A   4      20.661   6.067 -10.878  1.00  0.00     0.007 C 
ENDBRANCH  61  62
ENDBRANCH  29  61
ENDBRANCH   3  29
TORSDOF 29
