REMARK SMILES CC(C)C[C@H](NC(=O)[C@H](CCC(N)=O)NC(=O)[C@H](Cc1ccccc1)NC(=O)[C@@H](N)CO)C(=O)N[C@@H](CCCNC(=N)N)C(=O)N[C@@H](CCCNC(=N)N)C(=O)O
REMARK SMILES IDX 33 1 34 2 35 3 5 5 6 6 7 7 8 8 9 10 15 11 16 12 17 13 18 15
REMARK SMILES IDX 26 16 27 17 28 18 29 20 30 21 31 24 32 25 19 27 20 28 21 29
REMARK SMILES IDX 25 30 22 31 24 32 23 33 10 34 11 35 12 36 13 37 14 38 4 41
REMARK SMILES IDX 2 42 1 43 3 44 36 45 44 46 46 47 45 48 47 50 55 51 56 52
REMARK SMILES IDX 57 53 48 55 49 56 50 57 51 58 52 59 54 60 53 64 37 66 38 67
REMARK SMILES IDX 39 68 40 69 41 70 43 71 42 75
REMARK H PARENT 35 4 6 9 15 14 26 19 30 22 30 23 32 26 13 39 13 40 46 49 57 54
REMARK H PARENT 51 61 54 62 54 63 53 65 40 72 43 73 43 74 42 76
ROOT
ATOM      1  C   LEU A   4      22.714   9.215  -8.521  1.00  0.00     0.243 C 
ATOM      2  O   LEU A   4      22.879  10.031  -9.468  1.00  0.00    -0.273 OA
ATOM      3  N   ARG A   5      23.822   8.720  -7.783  1.00  0.00    -0.343 N 
ATOM      4  H   UNL     1      23.665   8.031  -7.012  1.00  0.00     0.164 HD
ENDROOT
BRANCH   1   5
ATOM      5  CA  LEU A   4      21.349   8.759  -8.143  1.00  0.00     0.171 C 
BRANCH   5   6
ATOM      6  N   LEU A   4      20.564   9.920  -7.777  1.00  0.00    -0.343 N 
ATOM      7  C   GLN A   3      20.039  10.085  -6.470  1.00  0.00     0.243 C 
ATOM      8  O   GLN A   3      20.156   9.167  -5.611  1.00  0.00    -0.273 OA
ATOM      9  H   UNL     1      20.403  10.662  -8.497  1.00  0.00     0.164 HD
BRANCH   7  10
ATOM     10  CA  GLN A   3      19.337  11.359  -6.141  1.00  0.00     0.171 C 
BRANCH  10  11
ATOM     11  N   GLN A   3      18.086  11.050  -5.500  1.00  0.00    -0.342 N 
ATOM     12  C   PHE A   2      16.884  11.751  -5.773  1.00  0.00     0.243 C 
ATOM     13  O   PHE A   2      16.900  12.793  -6.484  1.00  0.00    -0.273 OA
ATOM     14  H   UNL     1      18.158  10.508  -4.614  1.00  0.00     0.164 HD
BRANCH  12  15
ATOM     15  CA  PHE A   2      15.649  11.313  -5.060  1.00  0.00     0.175 C 
BRANCH  15  16
ATOM     16  N   PHE A   2      14.451  11.740  -5.769  1.00  0.00    -0.343 N 
ATOM     17  C   SER A   1      13.914  13.051  -5.636  1.00  0.00     0.239 C 
ATOM     18  O   SER A   1      14.449  13.870  -4.839  1.00  0.00    -0.273 OA
ATOM     19  H   UNL     1      13.858  11.001  -6.206  1.00  0.00     0.164 HD
BRANCH  17  20
ATOM     20  CA  SER A   1      12.654  13.411  -6.383  1.00  0.00     0.167 C 
BRANCH  20  21
ATOM     21  N   SER A   1      12.467  14.863  -6.382  1.00  0.00    -0.318 NA
ATOM     22  H   UNL     1      12.304  15.175  -5.397  1.00  0.00     0.119 HD
ATOM     23  H   UNL     1      11.581  15.088  -6.891  1.00  0.00     0.119 HD
ENDBRANCH  20  21
BRANCH  20  24
ATOM     24  CB  SER A   1      12.694  12.894  -7.842  1.00  0.00     0.184 C 
BRANCH  24  25
ATOM     25  OG  SER A   1      11.440  13.037  -8.449  1.00  0.00    -0.394 OA
ATOM     26  H   UNL     1      10.855  12.332  -8.065  1.00  0.00     0.210 HD
ENDBRANCH  24  25
ENDBRANCH  20  24
ENDBRANCH  17  20
ENDBRANCH  15  16
BRANCH  15  27
ATOM     27  CB  PHE A   2      15.611   9.774  -4.892  1.00  0.00     0.070 C 
BRANCH  27  28
ATOM     28  CG  PHE A   2      14.443   9.289  -4.090  1.00  0.00    -0.045 A 
ATOM     29  CD1 PHE A   2      13.903  10.046  -3.033  1.00  0.00     0.004 A 
ATOM     30  CD2 PHE A   2      13.968   7.989  -4.310  1.00  0.00     0.004 A 
ATOM     31  CE1 PHE A   2      12.869   9.535  -2.260  1.00  0.00     0.000 A 
ATOM     32  CE2 PHE A   2      12.939   7.477  -3.521  1.00  0.00     0.000 A 
ATOM     33  CZ  PHE A   2      12.386   8.252  -2.502  1.00  0.00     0.000 A 
ENDBRANCH  27  28
ENDBRANCH  15  27
ENDBRANCH  12  15
ENDBRANCH  10  11
BRANCH  10  34
ATOM     34  CB  GLN A   3      20.190  12.255  -5.238  1.00  0.00     0.045 C 
BRANCH  34  35
ATOM     35  CG  GLN A   3      20.401  11.721  -3.804  1.00  0.00     0.102 C 
BRANCH  35  36
ATOM     36  CD  GLN A   3      21.775  12.051  -3.320  1.00  0.00     0.217 C 
ATOM     37  NE2 GLN A   3      22.159  13.402  -3.071  1.00  0.00    -0.370 N 
ATOM     38  OE1 GLN A   3      22.599  11.120  -3.136  1.00  0.00    -0.275 OA
ATOM     39  H   UNL     1      21.481  14.183  -3.218  1.00  0.00     0.159 HD
ATOM     40  H   UNL     1      23.125  13.623  -2.742  1.00  0.00     0.159 HD
ENDBRANCH  35  36
ENDBRANCH  34  35
ENDBRANCH  10  34
ENDBRANCH   7  10
ENDBRANCH   5   6
BRANCH   5  41
ATOM     41  CB  LEU A   4      20.658   7.999  -9.277  1.00  0.00     0.038 C 
BRANCH  41  42
ATOM     42  CG  LEU A   4      21.451   6.771  -9.774  1.00  0.00    -0.015 C 
ATOM     43  CD1 LEU A   4      21.764   5.779  -8.643  1.00  0.00     0.007 C 
ATOM     44  CD2 LEU A   4      20.663   6.067 -10.882  1.00  0.00     0.007 C 
ENDBRANCH  41  42
ENDBRANCH   5  41
ENDBRANCH   1   5
BRANCH   3  45
ATOM     45  CA  ARG A   5      25.185   9.121  -8.068  1.00  0.00     0.171 C 
BRANCH  45  46
ATOM     46  C   ARG A   5      25.900   7.968  -8.683  1.00  0.00     0.243 C 
ATOM     47  N   ARG A   6      25.931   7.884 -10.100  1.00  0.00    -0.341 N 
ATOM     48  O   ARG A   5      26.440   7.080  -7.971  1.00  0.00    -0.273 OA
ATOM     49  H   UNL     1      25.631   8.732 -10.630  1.00  0.00     0.164 HD
BRANCH  47  50
ATOM     50  CA  ARG A   6      26.538   6.769 -10.817  1.00  0.00     0.192 C 
BRANCH  50  51
ATOM     51  C   ARG A   6      27.988   6.642 -10.431  1.00  0.00     0.326 C 
ATOM     52  O   ARG A   6      28.796   7.576 -10.679  1.00  0.00    -0.250 OA
BRANCH  51  53
ATOM     53  OXT ARG A   6      28.437   5.486  -9.800  1.00  0.00    -0.480 OA
ATOM     54  H   UNL     1      29.409   5.384  -9.533  1.00  0.00     0.296 HD
ENDBRANCH  51  53
ENDBRANCH  50  51
BRANCH  50  55
ATOM     55  CB  ARG A   6      26.417   6.995 -12.335  1.00  0.00     0.039 C 
BRANCH  55  56
ATOM     56  CG  ARG A   6      24.953   7.117 -12.790  1.00  0.00     0.024 C 
BRANCH  56  57
ATOM     57  CD  ARG A   6      24.850   7.275 -14.310  1.00  0.00     0.116 C 
BRANCH  57  58
ATOM     58  NE  ARG A   6      23.448   7.255 -14.729  1.00  0.00    -0.357 N 
ATOM     59  CZ  ARG A   6      22.537   8.338 -14.483  1.00  0.00     0.185 C 
ATOM     60  NH2 ARG A   6      21.156   8.188 -14.817  1.00  0.00    -0.370 N 
ATOM     61  H   UNL     1      23.099   6.415 -15.243  1.00  0.00     0.163 HD
ATOM     62  H   UNL     1      20.805   7.295 -15.229  1.00  0.00     0.159 HD
ATOM     63  H   UNL     1      20.475   8.962 -14.648  1.00  0.00     0.159 HD
BRANCH  59  64
ATOM     64  NH1 ARG A   6      22.963   9.448 -13.968  1.00  0.00    -0.270 NA
ATOM     65  H   UNL     1      22.320  10.250 -13.781  1.00  0.00     0.191 HD
ENDBRANCH  59  64
ENDBRANCH  57  58
ENDBRANCH  56  57
ENDBRANCH  55  56
ENDBRANCH  50  55
ENDBRANCH  47  50
ENDBRANCH  45  46
BRANCH  45  66
ATOM     66  CB  ARG A   5      25.863   9.604  -6.791  1.00  0.00     0.037 C 
BRANCH  66  67
ATOM     67  CG  ARG A   5      25.163  10.857  -6.264  1.00  0.00     0.024 C 
BRANCH  67  68
ATOM     68  CD  ARG A   5      25.842  11.394  -5.013  1.00  0.00     0.116 C 
BRANCH  68  69
ATOM     69  NE  ARG A   5      25.401  10.681  -3.817  1.00  0.00    -0.357 N 
ATOM     70  CZ  ARG A   5      25.488  11.279  -2.523  1.00  0.00     0.185 C 
ATOM     71  NH2 ARG A   5      26.110  12.552  -2.352  1.00  0.00    -0.370 N 
ATOM     72  H   UNL     1      24.949   9.742  -3.905  1.00  0.00     0.163 HD
ATOM     73  H   UNL     1      26.072  13.034  -1.426  1.00  0.00     0.159 HD
ATOM     74  H   UNL     1      26.696  12.991  -3.094  1.00  0.00     0.159 HD
BRANCH  70  75
ATOM     75  NH1 ARG A   5      24.977  10.668  -1.502  1.00  0.00    -0.270 NA
ATOM     76  H   UNL     1      25.012  11.076  -0.541  1.00  0.00     0.191 HD
ENDBRANCH  70  75
ENDBRANCH  68  69
ENDBRANCH  67  68
ENDBRANCH  66  67
ENDBRANCH  45  66
ENDBRANCH   3  45
TORSDOF 32
