REMARK SMILES CC(C)C[C@H](NC(=O)[C@H](Cc1ccccc1)NC(=O)[C@@H](N)Cc1c[nH]cn1)C(=O)N[C@@H](CCCNC(=N)N)C(=O)N[C@@H](CCCNC(=N)N)C(=O)N[C@@H](CC(N)=O)C(=O)O
REMARK SMILES IDX 28 1 29 2 30 3 5 5 6 6 7 7 8 8 9 10 17 11 18 12 19 13 20 15
REMARK SMILES IDX 21 16 22 19 23 20 27 21 24 22 26 23 25 24 10 26 11 27 12 28
REMARK SMILES IDX 16 29 13 30 15 31 14 32 4 33 2 34 1 35 3 36 31 37 39 38
REMARK SMILES IDX 41 39 40 40 42 42 50 43 52 44 51 45 53 47 58 48 59 49 60 50
REMARK SMILES IDX 54 52 55 53 56 54 57 55 43 58 44 59 45 60 46 61 47 62 49 63
REMARK SMILES IDX 48 67 32 69 33 70 34 71 35 72 36 73 38 74 37 78
REMARK H PARENT 30 4 6 9 17 14 21 17 21 18 25 25 41 41 52 46 60 51 56 56 56 57
REMARK H PARENT 46 64 49 65 49 66 48 68 35 75 38 76 38 77 37 79
ROOT
ATOM      1  C   LEU A   3      20.051  10.087  -6.476  1.00  0.00     0.243 C 
ATOM      2  O   LEU A   3      20.162   9.162  -5.623  1.00  0.00    -0.273 OA
ATOM      3  N   ARG A   4      20.565   9.921  -7.785  1.00  0.00    -0.343 N 
ATOM      4  H   UNL     1      20.400  10.660  -8.506  1.00  0.00     0.164 HD
ENDROOT
BRANCH   1   5
ATOM      5  CA  LEU A   3      19.339  11.355  -6.145  1.00  0.00     0.171 C 
BRANCH   5   6
ATOM      6  N   LEU A   3      18.082  11.021  -5.536  1.00  0.00    -0.343 N 
ATOM      7  C   PHE A   2      16.887  11.746  -5.776  1.00  0.00     0.243 C 
ATOM      8  O   PHE A   2      16.909  12.799  -6.470  1.00  0.00    -0.273 OA
ATOM      9  H   UNL     1      18.153  10.388  -4.715  1.00  0.00     0.164 HD
BRANCH   7  10
ATOM     10  CA  PHE A   2      15.650  11.312  -5.063  1.00  0.00     0.175 C 
BRANCH  10  11
ATOM     11  N   PHE A   2      14.461  11.746  -5.780  1.00  0.00    -0.343 N 
ATOM     12  C   HIS A   1      13.914  13.049  -5.623  1.00  0.00     0.237 C 
ATOM     13  O   HIS A   1      14.443  13.860  -4.813  1.00  0.00    -0.273 OA
ATOM     14  H   UNL     1      13.961  11.049  -6.376  1.00  0.00     0.164 HD
BRANCH  12  15
ATOM     15  CA  HIS A   1      12.670  13.429  -6.388  1.00  0.00     0.147 C 
BRANCH  15  16
ATOM     16  N   HIS A   1      12.470  14.879  -6.395  1.00  0.00    -0.320 NA
ATOM     17  H   UNL     1      12.249  15.194  -5.422  1.00  0.00     0.119 HD
ATOM     18  H   UNL     1      13.351  15.360  -6.689  1.00  0.00     0.119 HD
ENDBRANCH  15  16
BRANCH  15  19
ATOM     19  CB  HIS A   1      12.666  12.892  -7.839  1.00  0.00     0.086 C 
BRANCH  19  20
ATOM     20  CG  HIS A   1      13.914  13.228  -8.608  1.00  0.00     0.060 A 
ATOM     21  ND1 HIS A   1      14.218  14.463  -9.056  1.00  0.00    -0.242 NA
ATOM     22  CD2 HIS A   1      14.915  12.347  -8.953  1.00  0.00     0.107 A 
ATOM     23  CE1 HIS A   1      15.411  14.302  -9.666  1.00  0.00     0.196 A 
ATOM     24  NE2 HIS A   1      15.856  13.032  -9.618  1.00  0.00    -0.351 N 
ATOM     25  H   UNL     1      16.748  12.660 -10.013  1.00  0.00     0.167 HD
ENDBRANCH  19  20
ENDBRANCH  15  19
ENDBRANCH  12  15
ENDBRANCH  10  11
BRANCH  10  26
ATOM     26  CB  PHE A   2      15.602   9.774  -4.891  1.00  0.00     0.070 C 
BRANCH  26  27
ATOM     27  CG  PHE A   2      14.431   9.294  -4.097  1.00  0.00    -0.045 A 
ATOM     28  CD1 PHE A   2      13.897  10.049  -3.036  1.00  0.00     0.004 A 
ATOM     29  CD2 PHE A   2      13.962   7.991  -4.312  1.00  0.00     0.004 A 
ATOM     30  CE1 PHE A   2      12.867   9.536  -2.259  1.00  0.00     0.000 A 
ATOM     31  CE2 PHE A   2      12.937   7.477  -3.519  1.00  0.00     0.000 A 
ATOM     32  CZ  PHE A   2      12.385   8.252  -2.499  1.00  0.00     0.000 A 
ENDBRANCH  26  27
ENDBRANCH  10  26
ENDBRANCH   7  10
ENDBRANCH   5   6
BRANCH   5  33
ATOM     33  CB  LEU A   3      20.163  12.254  -5.215  1.00  0.00     0.038 C 
BRANCH  33  34
ATOM     34  CG  LEU A   3      20.417  11.680  -3.791  1.00  0.00    -0.015 C 
ATOM     35  CD1 LEU A   3      21.819  12.066  -3.316  1.00  0.00     0.007 C 
ATOM     36  CD2 LEU A   3      19.369  12.170  -2.780  1.00  0.00     0.007 C 
ENDBRANCH  33  34
ENDBRANCH   5  33
ENDBRANCH   1   5
BRANCH   3  37
ATOM     37  CA  ARG A   4      21.349   8.758  -8.149  1.00  0.00     0.171 C 
BRANCH  37  38
ATOM     38  C   ARG A   4      22.714   9.215  -8.525  1.00  0.00     0.243 C 
ATOM     39  N   ARG A   5      23.822   8.721  -7.786  1.00  0.00    -0.343 N 
ATOM     40  O   ARG A   4      22.880  10.033  -9.471  1.00  0.00    -0.273 OA
ATOM     41  H   UNL     1      23.666   8.031  -7.016  1.00  0.00     0.164 HD
BRANCH  39  42
ATOM     42  CA  ARG A   5      25.186   9.122  -8.073  1.00  0.00     0.171 C 
BRANCH  42  43
ATOM     43  C   ARG A   5      25.900   7.967  -8.685  1.00  0.00     0.243 C 
ATOM     44  N   ASN A   6      25.913   7.864 -10.102  1.00  0.00    -0.341 N 
ATOM     45  O   ARG A   5      26.447   7.086  -7.969  1.00  0.00    -0.273 OA
ATOM     46  H   UNL     1      25.488   8.647 -10.651  1.00  0.00     0.164 HD
BRANCH  44  47
ATOM     47  CA  ASN A   6      26.542   6.750 -10.804  1.00  0.00     0.201 C 
BRANCH  47  48
ATOM     48  C   ASN A   6      27.992   6.642 -10.415  1.00  0.00     0.326 C 
ATOM     49  O   ASN A   6      28.794   7.578 -10.677  1.00  0.00    -0.250 OA
BRANCH  48  50
ATOM     50  OXT ASN A   6      28.451   5.499  -9.768  1.00  0.00    -0.480 OA
ATOM     51  H   UNL     1      29.423   5.409  -9.499  1.00  0.00     0.296 HD
ENDBRANCH  48  50
ENDBRANCH  47  48
BRANCH  47  52
ATOM     52  CB  ASN A   6      26.424   6.946 -12.323  1.00  0.00     0.136 C 
BRANCH  52  53
ATOM     53  CG  ASN A   6      25.010   7.180 -12.773  1.00  0.00     0.220 C 
ATOM     54  ND2 ASN A   6      24.754   8.090 -13.833  1.00  0.00    -0.370 N 
ATOM     55  OD1 ASN A   6      24.053   6.557 -12.243  1.00  0.00    -0.275 OA
ATOM     56  H   UNL     1      23.775   8.257 -14.157  1.00  0.00     0.159 HD
ATOM     57  H   UNL     1      25.533   8.600 -14.305  1.00  0.00     0.159 HD
ENDBRANCH  52  53
ENDBRANCH  47  52
ENDBRANCH  44  47
ENDBRANCH  42  43
BRANCH  42  58
ATOM     58  CB  ARG A   5      25.862   9.605  -6.795  1.00  0.00     0.037 C 
BRANCH  58  59
ATOM     59  CG  ARG A   5      25.166  10.861  -6.271  1.00  0.00     0.024 C 
BRANCH  59  60
ATOM     60  CD  ARG A   5      25.839  11.392  -5.014  1.00  0.00     0.116 C 
BRANCH  60  61
ATOM     61  NE  ARG A   5      25.378  10.684  -3.823  1.00  0.00    -0.357 N 
ATOM     62  CZ  ARG A   5      25.468  11.279  -2.527  1.00  0.00     0.185 C 
ATOM     63  NH2 ARG A   5      26.105  12.541  -2.350  1.00  0.00    -0.370 N 
ATOM     64  H   UNL     1      24.899   9.759  -3.922  1.00  0.00     0.163 HD
ATOM     65  H   UNL     1      26.080  13.007  -1.415  1.00  0.00     0.159 HD
ATOM     66  H   UNL     1      26.692  12.983  -3.090  1.00  0.00     0.159 HD
BRANCH  62  67
ATOM     67  NH1 ARG A   5      24.956  10.679  -1.500  1.00  0.00    -0.270 NA
ATOM     68  H   UNL     1      24.474   9.757  -1.584  1.00  0.00     0.191 HD
ENDBRANCH  62  67
ENDBRANCH  60  61
ENDBRANCH  59  60
ENDBRANCH  58  59
ENDBRANCH  42  58
ENDBRANCH  39  42
ENDBRANCH  37  38
BRANCH  37  69
ATOM     69  CB  ARG A   4      20.658   7.995  -9.280  1.00  0.00     0.037 C 
BRANCH  69  70
ATOM     70  CG  ARG A   4      21.455   6.777  -9.772  1.00  0.00     0.024 C 
BRANCH  70  71
ATOM     71  CD  ARG A   4      21.764   5.769  -8.655  1.00  0.00     0.116 C 
BRANCH  71  72
ATOM     72  NE  ARG A   4      22.308   4.534  -9.221  1.00  0.00    -0.357 N 
ATOM     73  CZ  ARG A   4      21.536   3.540  -9.921  1.00  0.00     0.185 C 
ATOM     74  NH2 ARG A   4      22.205   2.429 -10.516  1.00  0.00    -0.370 N 
ATOM     75  H   UNL     1      23.331   4.358  -9.095  1.00  0.00     0.163 HD
ATOM     76  H   UNL     1      23.243   2.340 -10.457  1.00  0.00     0.159 HD
ATOM     77  H   UNL     1      21.664   1.693 -11.023  1.00  0.00     0.159 HD
BRANCH  73  78
ATOM     78  NH1 ARG A   4      20.244   3.620 -10.015  1.00  0.00    -0.270 NA
ATOM     79  H   UNL     1      19.679   4.393  -9.602  1.00  0.00     0.191 HD
ENDBRANCH  73  78
ENDBRANCH  71  72
ENDBRANCH  70  71
ENDBRANCH  69  70
ENDBRANCH  37  69
ENDBRANCH   3  37
TORSDOF 31
