REMARK SMILES CC[C@H](C)[C@H](NC(=O)[C@@H](N)CO)C(=O)N[C@@H](CC(C)C)C(=O)N[C@@H](CCC(N)=O)C(=O)N[C@@H](CCCNC(=N)N)C(=O)N[C@@H](CC(N)=O)C(=O)O
REMARK SMILES IDX 21 1 22 2 23 3 16 5 15 6 13 7 14 8 5 10 6 11 7 12 8 13 9 15
REMARK SMILES IDX 10 16 11 19 12 20 3 22 4 23 2 24 1 25 17 26 18 27 19 28
REMARK SMILES IDX 20 29 24 30 30 31 32 32 31 33 33 35 41 36 43 37 42 38 44 40
REMARK SMILES IDX 49 41 50 42 51 43 45 45 46 46 47 47 48 48 34 51 35 52 36 53
REMARK SMILES IDX 37 54 38 55 40 56 39 60 25 62 26 63 27 64 28 65 29 66
REMARK H PARENT 23 4 15 9 6 14 10 17 10 18 12 21 32 34 43 39 51 44 47 49 47 50
REMARK H PARENT 37 57 40 58 40 59 39 61 28 67 28 68
ROOT
ATOM      1  C   LEU A   3      20.044  10.085  -6.474  1.00  0.00     0.243 C 
ATOM      2  O   LEU A   3      20.159   9.160  -5.622  1.00  0.00    -0.273 OA
ATOM      3  N   GLN A   4      20.563   9.920  -7.782  1.00  0.00    -0.343 N 
ATOM      4  H   UNL     1      20.398  10.661  -8.502  1.00  0.00     0.164 HD
ENDROOT
BRANCH   1   5
ATOM      5  CA  LEU A   3      19.332  11.355  -6.139  1.00  0.00     0.171 C 
BRANCH   5   6
ATOM      6  N   LEU A   3      18.077  11.028  -5.516  1.00  0.00    -0.343 N 
ATOM      7  C   ILE A   2      16.873  11.743  -5.755  1.00  0.00     0.243 C 
ATOM      8  O   ILE A   2      16.887  12.793  -6.456  1.00  0.00    -0.273 OA
ATOM      9  H   UNL     1      18.137  10.359  -4.722  1.00  0.00     0.164 HD
BRANCH   7  10
ATOM     10  CA  ILE A   2      15.623  11.274  -5.061  1.00  0.00     0.174 C 
BRANCH  10  11
ATOM     11  N   ILE A   2      14.426  11.731  -5.754  1.00  0.00    -0.343 N 
ATOM     12  C   SER A   1      13.919  13.052  -5.632  1.00  0.00     0.239 C 
ATOM     13  O   SER A   1      14.462  13.866  -4.836  1.00  0.00    -0.273 OA
ATOM     14  H   UNL     1      13.759  11.019  -6.111  1.00  0.00     0.164 HD
BRANCH  12  15
ATOM     15  CA  SER A   1      12.664  13.419  -6.385  1.00  0.00     0.167 C 
BRANCH  15  16
ATOM     16  N   SER A   1      12.460  14.868  -6.399  1.00  0.00    -0.318 NA
ATOM     17  H   UNL     1      12.295  15.200  -5.421  1.00  0.00     0.119 HD
ATOM     18  H   UNL     1      13.322  15.342  -6.758  1.00  0.00     0.119 HD
ENDBRANCH  15  16
BRANCH  15  19
ATOM     19  CB  SER A   1      12.694  12.890  -7.837  1.00  0.00     0.184 C 
BRANCH  19  20
ATOM     20  OG  SER A   1      11.441  13.048  -8.443  1.00  0.00    -0.394 OA
ATOM     21  H   UNL     1      10.848  12.349  -8.060  1.00  0.00     0.210 HD
ENDBRANCH  19  20
ENDBRANCH  15  19
ENDBRANCH  12  15
ENDBRANCH  10  11
BRANCH  10  22
ATOM     22  CB  ILE A   2      15.597   9.721  -4.867  1.00  0.00     0.018 C 
ATOM     23  CG1 ILE A   2      14.363   9.252  -4.100  1.00  0.00     0.010 C 
BRANCH  22  24
ATOM     24  CG2 ILE A   2      15.886   8.836  -6.117  1.00  0.00     0.002 C 
ATOM     25  CD1 ILE A   2      14.953   9.031  -7.310  1.00  0.00     0.004 C 
ENDBRANCH  22  24
ENDBRANCH  10  22
ENDBRANCH   7  10
ENDBRANCH   5   6
BRANCH   5  26
ATOM     26  CB  LEU A   3      20.164  12.252  -5.215  1.00  0.00     0.038 C 
BRANCH  26  27
ATOM     27  CG  LEU A   3      20.417  11.679  -3.790  1.00  0.00    -0.015 C 
ATOM     28  CD1 LEU A   3      21.819  12.067  -3.316  1.00  0.00     0.007 C 
ATOM     29  CD2 LEU A   3      19.369  12.168  -2.780  1.00  0.00     0.007 C 
ENDBRANCH  26  27
ENDBRANCH   5  26
ENDBRANCH   1   5
BRANCH   3  30
ATOM     30  CA  GLN A   4      21.347   8.757  -8.149  1.00  0.00     0.171 C 
BRANCH  30  31
ATOM     31  C   GLN A   4      22.713   9.214  -8.525  1.00  0.00     0.243 C 
ATOM     32  N   ARG A   5      23.821   8.713  -7.791  1.00  0.00    -0.343 N 
ATOM     33  O   GLN A   4      22.879  10.034  -9.469  1.00  0.00    -0.273 OA
ATOM     34  H   UNL     1      23.665   7.995  -7.046  1.00  0.00     0.164 HD
BRANCH  32  35
ATOM     35  CA  ARG A   5      25.184   9.120  -8.073  1.00  0.00     0.171 C 
BRANCH  35  36
ATOM     36  C   ARG A   5      25.903   7.969  -8.686  1.00  0.00     0.243 C 
ATOM     37  N   ASN A   6      25.914   7.865 -10.102  1.00  0.00    -0.341 N 
ATOM     38  O   ARG A   5      26.450   7.088  -7.970  1.00  0.00    -0.273 OA
ATOM     39  H   UNL     1      25.488   8.647 -10.651  1.00  0.00     0.164 HD
BRANCH  37  40
ATOM     40  CA  ASN A   6      26.543   6.751 -10.804  1.00  0.00     0.201 C 
BRANCH  40  41
ATOM     41  C   ASN A   6      27.993   6.642 -10.416  1.00  0.00     0.326 C 
ATOM     42  O   ASN A   6      28.794   7.579 -10.677  1.00  0.00    -0.250 OA
BRANCH  41  43
ATOM     43  OXT ASN A   6      28.452   5.499  -9.769  1.00  0.00    -0.480 OA
ATOM     44  H   UNL     1      29.424   5.409  -9.500  1.00  0.00     0.296 HD
ENDBRANCH  41  43
ENDBRANCH  40  41
BRANCH  40  45
ATOM     45  CB  ASN A   6      26.425   6.947 -12.323  1.00  0.00     0.136 C 
BRANCH  45  46
ATOM     46  CG  ASN A   6      25.011   7.181 -12.773  1.00  0.00     0.220 C 
ATOM     47  ND2 ASN A   6      24.754   8.091 -13.833  1.00  0.00    -0.370 N 
ATOM     48  OD1 ASN A   6      24.054   6.558 -12.243  1.00  0.00    -0.275 OA
ATOM     49  H   UNL     1      25.533   8.600 -14.306  1.00  0.00     0.159 HD
ATOM     50  H   UNL     1      23.775   8.258 -14.157  1.00  0.00     0.159 HD
ENDBRANCH  45  46
ENDBRANCH  40  45
ENDBRANCH  37  40
ENDBRANCH  35  36
BRANCH  35  51
ATOM     51  CB  ARG A   5      25.859   9.602  -6.794  1.00  0.00     0.037 C 
BRANCH  51  52
ATOM     52  CG  ARG A   5      25.164  10.859  -6.272  1.00  0.00     0.024 C 
BRANCH  52  53
ATOM     53  CD  ARG A   5      25.838  11.391  -5.015  1.00  0.00     0.116 C 
BRANCH  53  54
ATOM     54  NE  ARG A   5      25.377  10.684  -3.823  1.00  0.00    -0.357 N 
ATOM     55  CZ  ARG A   5      25.468  11.279  -2.527  1.00  0.00     0.185 C 
ATOM     56  NH2 ARG A   5      26.105  12.541  -2.350  1.00  0.00    -0.370 N 
ATOM     57  H   UNL     1      24.898   9.759  -3.921  1.00  0.00     0.163 HD
ATOM     58  H   UNL     1      26.081  13.007  -1.416  1.00  0.00     0.159 HD
ATOM     59  H   UNL     1      26.691  12.983  -3.091  1.00  0.00     0.159 HD
BRANCH  55  60
ATOM     60  NH1 ARG A   5      24.956  10.679  -1.500  1.00  0.00    -0.270 NA
ATOM     61  H   UNL     1      24.474   9.757  -1.584  1.00  0.00     0.191 HD
ENDBRANCH  55  60
ENDBRANCH  53  54
ENDBRANCH  52  53
ENDBRANCH  51  52
ENDBRANCH  35  51
ENDBRANCH  32  35
ENDBRANCH  30  31
BRANCH  30  62
ATOM     62  CB  GLN A   4      20.656   7.995  -9.284  1.00  0.00     0.045 C 
BRANCH  62  63
ATOM     63  CG  GLN A   4      21.450   6.768  -9.762  1.00  0.00     0.102 C 
BRANCH  63  64
ATOM     64  CD  GLN A   4      21.757   5.807  -8.646  1.00  0.00     0.217 C 
ATOM     65  NE2 GLN A   4      23.105   5.441  -8.353  1.00  0.00    -0.370 N 
ATOM     66  OE1 GLN A   4      20.815   5.302  -7.978  1.00  0.00    -0.275 OA
ATOM     67  H   UNL     1      23.897   5.818  -8.918  1.00  0.00     0.159 HD
ATOM     68  H   UNL     1      23.313   4.783  -7.570  1.00  0.00     0.159 HD
ENDBRANCH  63  64
ENDBRANCH  62  63
ENDBRANCH  30  62
ENDBRANCH   3  30
TORSDOF 29
