REMARK SMILES CC(C)C[C@H](NC(=O)[C@H](Cc1ccccc1)NC(=O)[C@@H](N)CO)C(=O)N[C@@H](Cc1c[nH]cn1)C(=O)N[C@@H](CCCNC(=N)N)C(=O)N[C@@H](CCC(N)=O)C(=O)O
REMARK SMILES IDX 24 1 25 2 26 3 5 5 6 6 7 7 8 8 9 10 17 11 18 12 19 13 20 15
REMARK SMILES IDX 21 16 22 19 23 20 10 22 11 23 12 24 16 25 13 26 15 27 14 28
REMARK SMILES IDX 4 29 2 30 1 31 3 32 27 33 34 34 36 35 35 36 37 38 45 39
REMARK SMILES IDX 47 40 46 41 48 43 54 44 55 45 56 46 49 48 50 49 51 50 52 51
REMARK SMILES IDX 53 52 38 55 39 56 40 57 41 58 42 59 44 60 43 64 28 66 29 67
REMARK SMILES IDX 33 68 30 69 32 70 31 71
REMARK H PARENT 26 4 6 9 17 14 21 17 21 18 23 21 36 37 47 42 56 47 52 53 52 54
REMARK H PARENT 41 61 44 62 44 63 43 65 31 72
ROOT
ATOM      1  C   LEU A   3      -0.988  -0.475  -0.432  1.00  0.00     0.243 C 
ATOM      2  O   LEU A   3      -0.795  -0.809  -1.632  1.00  0.00    -0.273 OA
ATOM      3  N   HIS A   4      -0.056   0.388   0.235  1.00  0.00    -0.342 N 
ATOM      4  H   UNL     1      -0.116   0.460   1.277  1.00  0.00     0.164 HD
ENDROOT
BRANCH   1   5
ATOM      5  CA  LEU A   3      -2.164  -1.028   0.334  1.00  0.00     0.171 C 
BRANCH   5   6
ATOM      6  N   LEU A   3      -3.331  -1.256  -0.529  1.00  0.00    -0.343 N 
ATOM      7  C   PHE A   2      -4.670  -1.227  -0.009  1.00  0.00     0.243 C 
ATOM      8  O   PHE A   2      -4.865  -1.082   1.232  1.00  0.00    -0.273 OA
ATOM      9  H   UNL     1      -3.210  -1.361  -1.562  1.00  0.00     0.164 HD
BRANCH   7  10
ATOM     10  CA  PHE A   2      -5.849  -1.353  -0.945  1.00  0.00     0.175 C 
BRANCH  10  11
ATOM     11  N   PHE A   2      -7.102  -1.427  -0.184  1.00  0.00    -0.343 N 
ATOM     12  C   SER A   1      -7.799  -2.660   0.061  1.00  0.00     0.239 C 
ATOM     13  O   SER A   1      -7.454  -3.717  -0.534  1.00  0.00    -0.273 OA
ATOM     14  H   UNL     1      -7.409  -0.577   0.340  1.00  0.00     0.164 HD
BRANCH  12  15
ATOM     15  CA  SER A   1      -8.969  -2.700   1.013  1.00  0.00     0.167 C 
BRANCH  15  16
ATOM     16  N   SER A   1      -8.655  -1.965   2.237  1.00  0.00    -0.318 NA
ATOM     17  H   UNL     1      -9.442  -2.096   2.908  1.00  0.00     0.119 HD
ATOM     18  H   UNL     1      -7.819  -2.410   2.680  1.00  0.00     0.119 HD
ENDBRANCH  15  16
BRANCH  15  19
ATOM     19  CB  SER A   1     -10.229  -2.129   0.343  1.00  0.00     0.184 C 
BRANCH  19  20
ATOM     20  OG  SER A   1     -10.055  -0.780  -0.008  1.00  0.00    -0.394 OA
ATOM     21  H   UNL     1     -10.195  -0.250   0.820  1.00  0.00     0.210 HD
ENDBRANCH  19  20
ENDBRANCH  15  19
ENDBRANCH  12  15
ENDBRANCH  10  11
BRANCH  10  22
ATOM     22  CB  PHE A   2      -5.911  -0.197  -1.969  1.00  0.00     0.070 C 
BRANCH  22  23
ATOM     23  CG  PHE A   2      -5.916   1.175  -1.334  1.00  0.00    -0.045 A 
ATOM     24  CD1 PHE A   2      -7.128   1.801  -0.999  1.00  0.00     0.004 A 
ATOM     25  CD2 PHE A   2      -4.704   1.839  -1.077  1.00  0.00     0.004 A 
ATOM     26  CE1 PHE A   2      -7.127   3.065  -0.402  1.00  0.00     0.000 A 
ATOM     27  CE2 PHE A   2      -4.706   3.104  -0.482  1.00  0.00     0.000 A 
ATOM     28  CZ  PHE A   2      -5.917   3.716  -0.144  1.00  0.00     0.000 A 
ENDBRANCH  22  23
ENDBRANCH  10  22
ENDBRANCH   7  10
ENDBRANCH   5   6
BRANCH   5  29
ATOM     29  CB  LEU A   3      -1.803  -2.288   1.156  1.00  0.00     0.038 C 
BRANCH  29  30
ATOM     30  CG  LEU A   3      -1.109  -3.442   0.388  1.00  0.00    -0.015 C 
ATOM     31  CD1 LEU A   3      -0.667  -4.521   1.387  1.00  0.00     0.007 C 
ATOM     32  CD2 LEU A   3      -2.018  -4.071  -0.677  1.00  0.00     0.007 C 
ENDBRANCH  29  30
ENDBRANCH   5  29
ENDBRANCH   1   5
BRANCH   3  33
ATOM     33  CA  HIS A   4       0.854   1.293  -0.476  1.00  0.00     0.177 C 
BRANCH  33  34
ATOM     34  C   HIS A   4       2.281   0.971  -0.105  1.00  0.00     0.243 C 
ATOM     35  N   ARG A   5       3.346   1.276  -1.024  1.00  0.00    -0.343 N 
ATOM     36  O   HIS A   4       2.532   0.451   1.017  1.00  0.00    -0.273 OA
ATOM     37  H   UNL     1       3.106   1.787  -1.905  1.00  0.00     0.164 HD
BRANCH  35  38
ATOM     38  CA  ARG A   5       4.716   0.758  -0.914  1.00  0.00     0.171 C 
BRANCH  38  39
ATOM     39  C   ARG A   5       4.702  -0.748  -1.024  1.00  0.00     0.243 C 
ATOM     40  N   GLN A   6       4.653  -1.594   0.140  1.00  0.00    -0.341 N 
ATOM     41  O   ARG A   5       4.687  -1.264  -2.177  1.00  0.00    -0.273 OA
ATOM     42  H   UNL     1       4.658  -1.160   1.091  1.00  0.00     0.164 HD
BRANCH  40  43
ATOM     43  CA  GLN A   6       4.774  -3.056   0.059  1.00  0.00     0.192 C 
BRANCH  43  44
ATOM     44  C   GLN A   6       3.662  -3.709   0.827  1.00  0.00     0.326 C 
ATOM     45  O   GLN A   6       3.338  -3.283   1.970  1.00  0.00    -0.250 OA
BRANCH  44  46
ATOM     46  OXT GLN A   6       3.014  -4.818   0.295  1.00  0.00    -0.480 OA
ATOM     47  H   UNL     1       2.285  -5.292   0.813  1.00  0.00     0.296 HD
ENDBRANCH  44  46
ENDBRANCH  43  44
BRANCH  43  48
ATOM     48  CB  GLN A   6       6.133  -3.519   0.610  1.00  0.00     0.047 C 
BRANCH  48  49
ATOM     49  CG  GLN A   6       7.306  -2.886  -0.152  1.00  0.00     0.102 C 
BRANCH  49  50
ATOM     50  CD  GLN A   6       8.602  -3.535   0.237  1.00  0.00     0.217 C 
ATOM     51  NE2 GLN A   6       9.291  -4.383  -0.685  1.00  0.00    -0.370 N 
ATOM     52  OE1 GLN A   6       9.077  -3.345   1.391  1.00  0.00    -0.275 OA
ATOM     53  H   UNL     1       8.913  -4.553  -1.644  1.00  0.00     0.159 HD
ATOM     54  H   UNL     1      10.200  -4.826  -0.416  1.00  0.00     0.159 HD
ENDBRANCH  49  50
ENDBRANCH  48  49
ENDBRANCH  43  48
ENDBRANCH  40  43
ENDBRANCH  38  39
BRANCH  38  55
ATOM     55  CB  ARG A   5       5.460   1.283   0.344  1.00  0.00     0.037 C 
BRANCH  55  56
ATOM     56  CG  ARG A   5       5.990   2.721   0.202  1.00  0.00     0.024 C 
BRANCH  56  57
ATOM     57  CD  ARG A   5       4.871   3.752   0.046  1.00  0.00     0.116 C 
BRANCH  57  58
ATOM     58  NE  ARG A   5       5.388   5.107   0.240  1.00  0.00    -0.357 N 
ATOM     59  CZ  ARG A   5       5.630   5.668   1.538  1.00  0.00     0.185 C 
ATOM     60  NH2 ARG A   5       6.169   6.989   1.648  1.00  0.00    -0.370 N 
ATOM     61  H   UNL     1       5.522   5.714  -0.600  1.00  0.00     0.163 HD
ATOM     62  H   UNL     1       6.391   7.541   0.791  1.00  0.00     0.159 HD
ATOM     63  H   UNL     1       6.343   7.417   2.584  1.00  0.00     0.159 HD
BRANCH  59  64
ATOM     64  NH1 ARG A   5       5.358   4.987   2.606  1.00  0.00    -0.270 NA
ATOM     65  H   UNL     1       5.520   5.375   3.561  1.00  0.00     0.191 HD
ENDBRANCH  59  64
ENDBRANCH  57  58
ENDBRANCH  56  57
ENDBRANCH  55  56
ENDBRANCH  38  55
ENDBRANCH  35  38
ENDBRANCH  33  34
BRANCH  33  66
ATOM     66  CB  HIS A   4       0.483   2.746  -0.123  1.00  0.00     0.093 C 
BRANCH  66  67
ATOM     67  CG  HIS A   4       1.178   3.758  -0.989  1.00  0.00     0.061 A 
ATOM     68  ND1 HIS A   4       1.177   3.731  -2.338  1.00  0.00    -0.242 NA
ATOM     69  CD2 HIS A   4       1.811   4.896  -0.547  1.00  0.00     0.107 A 
ATOM     70  CE1 HIS A   4       1.844   4.850  -2.686  1.00  0.00     0.196 A 
ATOM     71  NE2 HIS A   4       2.238   5.573  -1.622  1.00  0.00    -0.351 N 
ATOM     72  H   UNL     1       2.765   6.473  -1.628  1.00  0.00     0.167 HD
ENDBRANCH  66  67
ENDBRANCH  33  66
ENDBRANCH   3  33
TORSDOF 29
