REMARK SMILES CC(C)C[C@H](NC(=O)[C@H](CO)NC(=O)[C@H](Cc1ccccc1)NC(=O)[C@@H](N)CO)C(=O)N[C@@H](CCCNC(=N)N)C(=O)NCC(=O)O
REMARK SMILES IDX 7 1 8 2 6 3 9 5 12 6 13 7 14 8 15 10 23 11 24 12 25 13 26 15
REMARK SMILES IDX 27 16 28 19 29 20 16 22 17 23 18 24 22 25 19 26 21 27 20 28
REMARK SMILES IDX 10 29 11 30 5 32 30 33 32 34 31 35 33 37 41 38 43 39 42 40
REMARK SMILES IDX 44 42 45 43 46 44 47 45 34 47 35 48 36 49 37 50 38 51 40 52
REMARK SMILES IDX 39 56 4 58 2 59 1 60 3 61
REMARK H PARENT 6 4 12 9 23 14 27 17 27 18 29 21 11 31 32 36 43 41 47 46 37 53
REMARK H PARENT 40 54 40 55 39 57
ROOT
ATOM      1  C   SER A   3      -0.337   0.143   1.036  1.00  0.00     0.245 C 
ATOM      2  O   SER A   3       0.173  -0.818   0.400  1.00  0.00    -0.273 OA
ATOM      3  N   LEU A   4       0.029   1.492   0.717  1.00  0.00    -0.342 N 
ATOM      4  H   UNL     1      -0.532   2.272   1.130  1.00  0.00     0.164 HD
ENDROOT
BRANCH   1   5
ATOM      5  CA  SER A   3      -1.316  -0.133   2.145  1.00  0.00     0.197 C 
BRANCH   5   6
ATOM      6  N   SER A   3      -2.481  -0.843   1.613  1.00  0.00    -0.340 N 
ATOM      7  C   PHE A   2      -3.483  -0.176   0.831  1.00  0.00     0.243 C 
ATOM      8  O   PHE A   2      -3.269   0.983   0.381  1.00  0.00    -0.273 OA
ATOM      9  H   UNL     1      -2.633  -1.844   1.874  1.00  0.00     0.164 HD
BRANCH   7  10
ATOM     10  CA  PHE A   2      -4.778  -0.882   0.522  1.00  0.00     0.175 C 
BRANCH  10  11
ATOM     11  N   PHE A   2      -5.860   0.088   0.296  1.00  0.00    -0.343 N 
ATOM     12  C   SER A   1      -7.166  -0.063   0.877  1.00  0.00     0.239 C 
ATOM     13  O   SER A   1      -7.364  -0.917   1.787  1.00  0.00    -0.273 OA
ATOM     14  H   UNL     1      -5.726   0.805  -0.455  1.00  0.00     0.164 HD
BRANCH  12  15
ATOM     15  CA  SER A   1      -8.318   0.780   0.393  1.00  0.00     0.167 C 
BRANCH  15  16
ATOM     16  N   SER A   1      -9.321  -0.084  -0.235  1.00  0.00    -0.318 NA
ATOM     17  H   UNL     1      -9.781  -0.676   0.495  1.00  0.00     0.119 HD
ATOM     18  H   UNL     1     -10.063   0.515  -0.669  1.00  0.00     0.119 HD
ENDBRANCH  15  16
BRANCH  15  19
ATOM     19  CB  SER A   1      -8.920   1.594   1.550  1.00  0.00     0.184 C 
BRANCH  19  20
ATOM     20  OG  SER A   1      -9.916   2.455   1.068  1.00  0.00    -0.394 OA
ATOM     21  H   UNL     1     -10.200   3.005   1.839  1.00  0.00     0.210 HD
ENDBRANCH  19  20
ENDBRANCH  15  19
ENDBRANCH  12  15
ENDBRANCH  10  11
BRANCH  10  22
ATOM     22  CB  PHE A   2      -4.608  -1.785  -0.709  1.00  0.00     0.070 C 
BRANCH  22  23
ATOM     23  CG  PHE A   2      -5.848  -2.607  -0.947  1.00  0.00    -0.045 A 
ATOM     24  CD1 PHE A   2      -6.811  -2.195  -1.882  1.00  0.00     0.004 A 
ATOM     25  CD2 PHE A   2      -6.095  -3.745  -0.160  1.00  0.00     0.004 A 
ATOM     26  CE1 PHE A   2      -8.004  -2.912  -2.028  1.00  0.00     0.000 A 
ATOM     27  CE2 PHE A   2      -7.286  -4.458  -0.310  1.00  0.00     0.000 A 
ATOM     28  CZ  PHE A   2      -8.243  -4.041  -1.240  1.00  0.00     0.000 A 
ENDBRANCH  22  23
ENDBRANCH  10  22
ENDBRANCH   7  10
ENDBRANCH   5   6
BRANCH   5  29
ATOM     29  CB  SER A   3      -0.650  -0.957   3.259  1.00  0.00     0.191 C 
BRANCH  29  30
ATOM     30  OG  SER A   3       0.451  -0.272   3.799  1.00  0.00    -0.394 OA
ATOM     31  H   UNL     1       0.081   0.428   4.401  1.00  0.00     0.210 HD
ENDBRANCH  29  30
ENDBRANCH   5  29
ENDBRANCH   1   5
BRANCH   3  32
ATOM     32  CA  LEU A   4       1.210   1.806  -0.093  1.00  0.00     0.171 C 
BRANCH  32  33
ATOM     33  C   LEU A   4       2.447   1.358   0.639  1.00  0.00     0.243 C 
ATOM     34  N   ARG A   5       3.462   0.613  -0.049  1.00  0.00    -0.343 N 
ATOM     35  O   LEU A   4       2.596   1.663   1.856  1.00  0.00    -0.273 OA
ATOM     36  H   UNL     1       3.346   0.431  -1.075  1.00  0.00     0.164 HD
BRANCH  34  37
ATOM     37  CA  ARG A   5       4.654   0.117   0.637  1.00  0.00     0.171 C 
BRANCH  37  38
ATOM     38  C   ARG A   5       5.586   1.269   0.930  1.00  0.00     0.243 C 
ATOM     39  N   GLY A   6       6.269   1.946  -0.143  1.00  0.00    -0.343 N 
ATOM     40  O   ARG A   5       5.710   1.671   2.123  1.00  0.00    -0.273 OA
ATOM     41  H   UNL     1       5.938   1.801  -1.126  1.00  0.00     0.164 HD
BRANCH  39  42
ATOM     42  CA  GLY A   6       7.375   2.875   0.085  1.00  0.00     0.238 C 
BRANCH  42  43
ATOM     43  C   GLY A   6       8.559   2.452  -0.718  1.00  0.00     0.322 C 
ATOM     44  O   GLY A   6       9.118   1.349  -0.483  1.00  0.00    -0.250 OA
BRANCH  43  45
ATOM     45  OXT GLY A   6       9.041   3.270  -1.740  1.00  0.00    -0.480 OA
ATOM     46  H   UNL     1       9.826   2.983  -2.312  1.00  0.00     0.296 HD
ENDBRANCH  43  45
ENDBRANCH  42  43
ENDBRANCH  39  42
ENDBRANCH  37  38
BRANCH  37  47
ATOM     47  CB  ARG A   5       5.340  -0.979  -0.206  1.00  0.00     0.037 C 
BRANCH  47  48
ATOM     48  CG  ARG A   5       6.436  -1.715   0.580  1.00  0.00     0.024 C 
BRANCH  48  49
ATOM     49  CD  ARG A   5       7.173  -2.747  -0.279  1.00  0.00     0.116 C 
BRANCH  49  50
ATOM     50  NE  ARG A   5       6.260  -3.793  -0.744  1.00  0.00    -0.357 N 
ATOM     51  CZ  ARG A   5       5.851  -3.991  -2.114  1.00  0.00     0.185 C 
ATOM     52  NH2 ARG A   5       5.256  -5.233  -2.492  1.00  0.00    -0.370 N 
ATOM     53  H   UNL     1       5.933  -4.482  -0.026  1.00  0.00     0.163 HD
ATOM     54  H   UNL     1       4.938  -5.392  -3.475  1.00  0.00     0.159 HD
ATOM     55  H   UNL     1       5.122  -5.989  -1.788  1.00  0.00     0.159 HD
BRANCH  51  56
ATOM     56  NH1 ARG A   5       5.984  -3.066  -3.012  1.00  0.00    -0.270 NA
ATOM     57  H   UNL     1       6.382  -2.124  -2.822  1.00  0.00     0.191 HD
ENDBRANCH  51  56
ENDBRANCH  49  50
ENDBRANCH  48  49
ENDBRANCH  47  48
ENDBRANCH  37  47
ENDBRANCH  34  37
ENDBRANCH  32  33
BRANCH  32  58
ATOM     58  CB  LEU A   4       1.265   3.322  -0.391  1.00  0.00     0.038 C 
BRANCH  58  59
ATOM     59  CG  LEU A   4       2.464   3.760  -1.269  1.00  0.00    -0.015 C 
ATOM     60  CD1 LEU A   4       2.552   5.291  -1.306  1.00  0.00     0.007 C 
ATOM     61  CD2 LEU A   4       2.357   3.218  -2.703  1.00  0.00     0.007 C 
ENDBRANCH  58  59
ENDBRANCH  32  58
ENDBRANCH   3  32
TORSDOF 26
