REMARK SMILES N=C(N)NCCC[C@H](NC(=O)[C@H](CO)NC(=O)CNC(=O)[C@H](Cc1ccccc1)NC(=O)[C@@H](N)CO)C(=O)N[C@@H](CC(N)=O)C(=O)O
REMARK SMILES IDX 16 1 17 2 15 3 18 5 19 6 20 7 21 8 22 10 30 11 31 12 32 13
REMARK SMILES IDX 33 15 34 16 35 19 36 20 23 22 24 23 25 24 29 25 26 26 28 27
REMARK SMILES IDX 27 28 12 29 10 30 9 31 11 32 8 34 37 35 39 36 38 37 40 39
REMARK SMILES IDX 45 40 46 41 47 42 41 44 42 45 43 46 44 47 7 50 6 51 5 52
REMARK SMILES IDX 4 53 2 54 3 55 1 59 13 61 14 62
REMARK H PARENT 15 4 19 9 30 14 34 17 34 18 36 21 9 33 39 38 47 43 43 48 43 49
REMARK H PARENT 4 56 3 57 3 58 1 60 14 63
ROOT
ATOM      1  C   GLY A   3      -2.222   2.750   0.559  1.00  0.00     0.240 C 
ATOM      2  O   GLY A   3      -2.257   2.986   1.798  1.00  0.00    -0.273 OA
ATOM      3  N   SER A   4      -1.104   2.063  -0.019  1.00  0.00    -0.341 N 
ATOM      4  H   UNL     1      -1.100   1.917  -1.056  1.00  0.00     0.164 HD
ENDROOT
BRANCH   1   5
ATOM      5  CA  GLY A   3      -3.355   3.202  -0.311  1.00  0.00     0.216 C 
BRANCH   5   6
ATOM      6  N   GLY A   3      -3.875   2.079  -1.088  1.00  0.00    -0.345 N 
ATOM      7  C   PHE A   2      -4.536   0.961  -0.478  1.00  0.00     0.243 C 
ATOM      8  O   PHE A   2      -4.725   0.940   0.770  1.00  0.00    -0.273 OA
ATOM      9  H   UNL     1      -3.770   2.101  -2.127  1.00  0.00     0.164 HD
BRANCH   7  10
ATOM     10  CA  PHE A   2      -5.055  -0.162  -1.337  1.00  0.00     0.175 C 
BRANCH  10  11
ATOM     11  N   PHE A   2      -5.131  -1.408  -0.566  1.00  0.00    -0.343 N 
ATOM     12  C   SER A   1      -4.022  -2.316  -0.462  1.00  0.00     0.239 C 
ATOM     13  O   SER A   1      -2.943  -2.069  -1.065  1.00  0.00    -0.273 OA
ATOM     14  H   UNL     1      -5.948  -1.555   0.065  1.00  0.00     0.164 HD
BRANCH  12  15
ATOM     15  CA  SER A   1      -4.116  -3.560   0.391  1.00  0.00     0.167 C 
BRANCH  15  16
ATOM     16  N   SER A   1      -4.168  -3.218   1.814  1.00  0.00    -0.318 NA
ATOM     17  H   UNL     1      -4.960  -2.561   1.993  1.00  0.00     0.119 HD
ATOM     18  H   UNL     1      -3.285  -2.720   2.069  1.00  0.00     0.119 HD
ENDBRANCH  15  16
BRANCH  15  19
ATOM     19  CB  SER A   1      -5.331  -4.416  -0.001  1.00  0.00     0.184 C 
BRANCH  19  20
ATOM     20  OG  SER A   1      -5.342  -5.618   0.722  1.00  0.00    -0.394 OA
ATOM     21  H   UNL     1      -4.633  -6.193   0.329  1.00  0.00     0.210 HD
ENDBRANCH  19  20
ENDBRANCH  15  19
ENDBRANCH  12  15
ENDBRANCH  10  11
BRANCH  10  22
ATOM     22  CB  PHE A   2      -6.416   0.185  -1.977  1.00  0.00     0.070 C 
BRANCH  22  23
ATOM     23  CG  PHE A   2      -7.503   0.486  -0.971  1.00  0.00    -0.045 A 
ATOM     24  CD1 PHE A   2      -8.393  -0.521  -0.561  1.00  0.00     0.004 A 
ATOM     25  CD2 PHE A   2      -7.632   1.777  -0.429  1.00  0.00     0.004 A 
ATOM     26  CE1 PHE A   2      -9.389  -0.243   0.380  1.00  0.00     0.000 A 
ATOM     27  CE2 PHE A   2      -8.628   2.051   0.513  1.00  0.00     0.000 A 
ATOM     28  CZ  PHE A   2      -9.505   1.041   0.918  1.00  0.00     0.000 A 
ENDBRANCH  22  23
ENDBRANCH  10  22
ENDBRANCH   7  10
ENDBRANCH   5   6
ENDBRANCH   1   5
BRANCH   3  29
ATOM     29  CA  SER A   4      -0.137   1.323   0.794  1.00  0.00     0.197 C 
BRANCH  29  30
ATOM     30  C   SER A   4       1.200   1.301   0.097  1.00  0.00     0.245 C 
ATOM     31  N   ARG A   5       2.315   2.025   0.643  1.00  0.00    -0.342 N 
ATOM     32  O   SER A   4       1.330   0.660  -0.982  1.00  0.00    -0.273 OA
ATOM     33  H   UNL     1       2.189   2.530   1.550  1.00  0.00     0.164 HD
BRANCH  31  34
ATOM     34  CA  ARG A   5       3.643   1.991   0.024  1.00  0.00     0.171 C 
BRANCH  34  35
ATOM     35  C   ARG A   5       4.310   0.689   0.391  1.00  0.00     0.243 C 
ATOM     36  N   ASN A   6       4.432  -0.357  -0.585  1.00  0.00    -0.341 N 
ATOM     37  O   ARG A   5       4.710   0.503   1.573  1.00  0.00    -0.273 OA
ATOM     38  H   UNL     1       4.162  -0.150  -1.574  1.00  0.00     0.164 HD
BRANCH  36  39
ATOM     39  CA  ASN A   6       5.057  -1.647  -0.283  1.00  0.00     0.201 C 
BRANCH  39  40
ATOM     40  C   ASN A   6       6.523  -1.582  -0.602  1.00  0.00     0.326 C 
ATOM     41  O   ASN A   6       6.913  -1.164  -1.727  1.00  0.00    -0.250 OA
BRANCH  40  42
ATOM     42  OXT ASN A   6       7.454  -2.011   0.339  1.00  0.00    -0.480 OA
ATOM     43  H   UNL     1       8.446  -1.991   0.134  1.00  0.00     0.296 HD
ENDBRANCH  40  42
ENDBRANCH  39  40
BRANCH  39  44
ATOM     44  CB  ASN A   6       4.364  -2.763  -1.083  1.00  0.00     0.136 C 
BRANCH  44  45
ATOM     45  CG  ASN A   6       4.852  -4.122  -0.672  1.00  0.00     0.220 C 
ATOM     46  ND2 ASN A   6       4.391  -4.718   0.541  1.00  0.00    -0.370 N 
ATOM     47  OD1 ASN A   6       5.693  -4.729  -1.387  1.00  0.00    -0.275 OA
ATOM     48  H   UNL     1       4.734  -5.660   0.830  1.00  0.00     0.159 HD
ATOM     49  H   UNL     1       3.704  -4.220   1.150  1.00  0.00     0.159 HD
ENDBRANCH  44  45
ENDBRANCH  39  44
ENDBRANCH  36  39
ENDBRANCH  34  35
BRANCH  34  50
ATOM     50  CB  ARG A   5       4.472   3.217   0.477  1.00  0.00     0.037 C 
BRANCH  50  51
ATOM     51  CG  ARG A   5       5.632   3.585  -0.473  1.00  0.00     0.024 C 
BRANCH  51  52
ATOM     52  CD  ARG A   5       6.814   2.603  -0.462  1.00  0.00     0.116 C 
BRANCH  52  53
ATOM     53  NE  ARG A   5       7.461   2.537   0.852  1.00  0.00    -0.357 N 
ATOM     54  CZ  ARG A   5       8.556   1.654   1.149  1.00  0.00     0.185 C 
ATOM     55  NH2 ARG A   5       9.082   1.613   2.475  1.00  0.00    -0.370 N 
ATOM     56  H   UNL     1       7.140   3.176   1.614  1.00  0.00     0.163 HD
ATOM     57  H   UNL     1       9.893   0.997   2.706  1.00  0.00     0.159 HD
ATOM     58  H   UNL     1       8.662   2.198   3.230  1.00  0.00     0.159 HD
BRANCH  54  59
ATOM     59  NH1 ARG A   5       9.085   0.897   0.238  1.00  0.00    -0.270 NA
ATOM     60  H   UNL     1       8.759   0.875  -0.751  1.00  0.00     0.191 HD
ENDBRANCH  54  59
ENDBRANCH  52  53
ENDBRANCH  51  52
ENDBRANCH  50  51
ENDBRANCH  34  50
ENDBRANCH  31  34
ENDBRANCH  29  30
BRANCH  29  61
ATOM     61  CB  SER A   4      -0.657  -0.099   1.043  1.00  0.00     0.191 C 
BRANCH  61  62
ATOM     62  OG  SER A   4       0.235  -0.802   1.865  1.00  0.00    -0.394 OA
ATOM     63  H   UNL     1      -0.146  -1.712   1.969  1.00  0.00     0.210 HD
ENDBRANCH  61  62
ENDBRANCH  29  61
ENDBRANCH   3  29
TORSDOF 26
