REMARK SMILES CC(C)C[C@H](NC(=O)[C@H](CC(=O)O)NC(=O)[C@@H](N)CO)C(=O)NCC(=O)N[C@@H](CCCNC(=N)N)C(=O)N[C@@H](CC(N)=O)C(=O)O
REMARK SMILES IDX 21 1 22 2 23 3 5 5 6 6 7 7 8 8 9 10 14 11 15 12 16 13 17 15
REMARK SMILES IDX 18 16 19 19 20 20 10 22 11 23 12 24 13 25 4 27 2 28 1 29
REMARK SMILES IDX 3 30 24 31 25 32 27 33 26 34 28 36 36 37 38 38 37 39 39 41
REMARK SMILES IDX 44 42 45 43 46 44 40 46 41 47 42 48 43 49 29 52 30 53 31 54
REMARK SMILES IDX 32 55 33 56 35 57 34 61
REMARK H PARENT 23 4 6 9 14 14 18 17 18 18 20 21 13 26 27 35 38 40 46 45 42 50
REMARK H PARENT 42 51 32 58 35 59 35 60 34 62
ROOT
ATOM      1  C   LEU A   3      20.066  10.077  -6.446  1.00  0.00     0.243 C 
ATOM      2  O   LEU A   3      20.211   9.174  -5.579  1.00  0.00    -0.273 OA
ATOM      3  N   GLY A   4      20.563   9.907  -7.768  1.00  0.00    -0.345 N 
ATOM      4  H   UNL     1      20.394  10.652  -8.482  1.00  0.00     0.164 HD
ENDROOT
BRANCH   1   5
ATOM      5  CA  LEU A   3      19.327  11.330  -6.128  1.00  0.00     0.171 C 
BRANCH   5   6
ATOM      6  N   LEU A   3      18.080  11.013  -5.487  1.00  0.00    -0.342 N 
ATOM      7  C   ASP A   2      16.877  11.734  -5.730  1.00  0.00     0.243 C 
ATOM      8  O   ASP A   2      16.895  12.777  -6.444  1.00  0.00    -0.273 OA
ATOM      9  H   UNL     1      18.147  10.370  -4.675  1.00  0.00     0.164 HD
BRANCH   7  10
ATOM     10  CA  ASP A   2      15.623  11.282  -5.033  1.00  0.00     0.182 C 
BRANCH  10  11
ATOM     11  N   ASP A   2      14.444  11.729  -5.761  1.00  0.00    -0.342 N 
ATOM     12  C   SER A   1      13.914  13.044  -5.636  1.00  0.00     0.239 C 
ATOM     13  O   SER A   1      14.446  13.863  -4.837  1.00  0.00    -0.273 OA
ATOM     14  H   UNL     1      13.862  10.999  -6.226  1.00  0.00     0.164 HD
BRANCH  12  15
ATOM     15  CA  SER A   1      12.662  13.409  -6.393  1.00  0.00     0.167 C 
BRANCH  15  16
ATOM     16  N   SER A   1      12.474  14.861  -6.377  1.00  0.00    -0.318 NA
ATOM     17  H   UNL     1      13.207  15.317  -6.969  1.00  0.00     0.119 HD
ATOM     18  H   UNL     1      11.543  15.089  -6.794  1.00  0.00     0.119 HD
ENDBRANCH  15  16
BRANCH  15  19
ATOM     19  CB  SER A   1      12.692  12.882  -7.849  1.00  0.00     0.184 C 
BRANCH  19  20
ATOM     20  OG  SER A   1      11.436  13.053  -8.443  1.00  0.00    -0.394 OA
ATOM     21  H   UNL     1      11.537  12.784  -9.393  1.00  0.00     0.210 HD
ENDBRANCH  19  20
ENDBRANCH  15  19
ENDBRANCH  12  15
ENDBRANCH  10  11
BRANCH  10  22
ATOM     22  CB  ASP A   2      15.576   9.737  -4.903  1.00  0.00     0.157 C 
BRANCH  22  23
ATOM     23  CG  ASP A   2      14.400   9.290  -4.100  1.00  0.00     0.305 C 
ATOM     24  OD1 ASP A   2      14.384   9.461  -2.852  1.00  0.00    -0.252 OA
BRANCH  23  25
ATOM     25  OD2 ASP A   2      13.309   8.704  -4.735  1.00  0.00    -0.481 OA
ATOM     26  H   UNL     1      12.499   8.405  -4.205  1.00  0.00     0.296 HD
ENDBRANCH  23  25
ENDBRANCH  22  23
ENDBRANCH  10  22
ENDBRANCH   7  10
ENDBRANCH   5   6
BRANCH   5  27
ATOM     27  CB  LEU A   3      20.151  12.337  -5.313  1.00  0.00     0.038 C 
BRANCH  27  28
ATOM     28  CG  LEU A   3      20.432  12.204  -3.790  1.00  0.00    -0.015 C 
ATOM     29  CD1 LEU A   3      21.822  11.747  -3.389  1.00  0.00     0.007 C 
ATOM     30  CD2 LEU A   3      19.302  11.893  -2.820  1.00  0.00     0.007 C 
ENDBRANCH  27  28
ENDBRANCH   5  27
ENDBRANCH   1   5
BRANCH   3  31
ATOM     31  CA  GLY A   4      21.332   8.753  -8.183  1.00  0.00     0.216 C 
BRANCH  31  32
ATOM     32  C   GLY A   4      22.704   9.202  -8.532  1.00  0.00     0.240 C 
ATOM     33  N   ARG A   5      23.808   8.707  -7.786  1.00  0.00    -0.343 N 
ATOM     34  O   GLY A   4      22.878  10.027  -9.470  1.00  0.00    -0.273 OA
ATOM     35  H   UNL     1      23.644   7.990  -7.042  1.00  0.00     0.164 HD
BRANCH  33  36
ATOM     36  CA  ARG A   5      25.175   9.114  -8.068  1.00  0.00     0.171 C 
BRANCH  36  37
ATOM     37  C   ARG A   5      25.897   7.966  -8.684  1.00  0.00     0.243 C 
ATOM     38  N   ASN A   6      25.915   7.866 -10.101  1.00  0.00    -0.341 N 
ATOM     39  O   ARG A   5      26.448   7.086  -7.969  1.00  0.00    -0.273 OA
ATOM     40  H   UNL     1      25.496   8.652 -10.650  1.00  0.00     0.164 HD
BRANCH  38  41
ATOM     41  CA  ASN A   6      26.543   6.752 -10.803  1.00  0.00     0.201 C 
BRANCH  41  42
ATOM     42  C   ASN A   6      27.993   6.642 -10.416  1.00  0.00     0.326 C 
ATOM     43  O   ASN A   6      28.795   7.579 -10.677  1.00  0.00    -0.250 OA
BRANCH  42  44
ATOM     44  OXT ASN A   6      28.452   5.499  -9.769  1.00  0.00    -0.480 OA
ATOM     45  H   UNL     1      29.425   5.408  -9.501  1.00  0.00     0.296 HD
ENDBRANCH  42  44
ENDBRANCH  41  42
BRANCH  41  46
ATOM     46  CB  ASN A   6      26.424   6.947 -12.323  1.00  0.00     0.136 C 
BRANCH  46  47
ATOM     47  CG  ASN A   6      25.010   7.182 -12.772  1.00  0.00     0.220 C 
ATOM     48  ND2 ASN A   6      24.754   8.089 -13.834  1.00  0.00    -0.370 N 
ATOM     49  OD1 ASN A   6      24.051   6.563 -12.238  1.00  0.00    -0.275 OA
ATOM     50  H   UNL     1      23.775   8.257 -14.157  1.00  0.00     0.159 HD
ATOM     51  H   UNL     1      25.534   8.596 -14.309  1.00  0.00     0.159 HD
ENDBRANCH  46  47
ENDBRANCH  41  46
ENDBRANCH  38  41
ENDBRANCH  36  37
BRANCH  36  52
ATOM     52  CB  ARG A   5      25.852   9.598  -6.791  1.00  0.00     0.037 C 
BRANCH  52  53
ATOM     53  CG  ARG A   5      25.161  10.858  -6.269  1.00  0.00     0.024 C 
BRANCH  53  54
ATOM     54  CD  ARG A   5      25.838  11.390  -5.014  1.00  0.00     0.116 C 
BRANCH  54  55
ATOM     55  NE  ARG A   5      25.375  10.687  -3.820  1.00  0.00    -0.357 N 
ATOM     56  CZ  ARG A   5      25.468  11.282  -2.526  1.00  0.00     0.185 C 
ATOM     57  NH2 ARG A   5      26.108  12.546  -2.352  1.00  0.00    -0.370 N 
ATOM     58  H   UNL     1      24.889   9.765  -3.911  1.00  0.00     0.163 HD
ATOM     59  H   UNL     1      26.082  13.023  -1.423  1.00  0.00     0.159 HD
ATOM     60  H   UNL     1      26.697  12.981  -3.094  1.00  0.00     0.159 HD
BRANCH  56  61
ATOM     61  NH1 ARG A   5      24.954  10.672  -1.506  1.00  0.00    -0.270 NA
ATOM     62  H   UNL     1      24.996  11.077  -0.544  1.00  0.00     0.191 HD
ENDBRANCH  56  61
ENDBRANCH  54  55
ENDBRANCH  53  54
ENDBRANCH  52  53
ENDBRANCH  36  52
ENDBRANCH  33  36
ENDBRANCH  31  32
ENDBRANCH   3  31
TORSDOF 27
