REMARK SMILES CC(C)C[C@H](NC(=O)[C@H](Cc1ccccc1)NC(=O)[C@@H](N)Cc1c[nH]cn1)C(=O)N[C@@H](CCC(N)=O)C(=O)N[C@@H](CCCNC(=N)N)C(=O)N[C@@H](CC(N)=O)C(=O)O
REMARK SMILES IDX 28 1 29 2 30 3 5 5 6 6 7 7 8 8 9 10 17 11 18 12 19 13 20 15
REMARK SMILES IDX 21 16 22 19 23 20 27 21 24 22 26 23 25 24 10 26 11 27 12 28
REMARK SMILES IDX 16 29 13 30 15 31 14 32 4 33 2 34 1 35 3 36 31 37 37 38
REMARK SMILES IDX 39 39 38 40 40 42 48 43 50 44 49 45 51 47 56 48 57 49 58 50
REMARK SMILES IDX 52 52 53 53 54 54 55 55 41 58 42 59 43 60 44 61 45 62 47 63
REMARK SMILES IDX 46 67 32 69 33 70 34 71 35 72 36 73
REMARK H PARENT 30 4 6 9 17 14 21 17 21 18 25 25 39 41 50 46 58 51 54 56 54 57
REMARK H PARENT 44 64 47 65 47 66 46 68 35 74 35 75
ROOT
ATOM      1  C   LEU A   3      20.052  10.085  -6.476  1.00  0.00     0.243 C 
ATOM      2  O   LEU A   3      20.164   9.160  -5.623  1.00  0.00    -0.273 OA
ATOM      3  N   GLN A   4      20.566   9.917  -7.785  1.00  0.00    -0.343 N 
ATOM      4  H   UNL     1      20.400  10.657  -8.506  1.00  0.00     0.164 HD
ENDROOT
BRANCH   1   5
ATOM      5  CA  LEU A   3      19.340  11.354  -6.145  1.00  0.00     0.171 C 
BRANCH   5   6
ATOM      6  N   LEU A   3      18.083  11.020  -5.536  1.00  0.00    -0.343 N 
ATOM      7  C   PHE A   2      16.889  11.746  -5.775  1.00  0.00     0.243 C 
ATOM      8  O   PHE A   2      16.910  12.797  -6.474  1.00  0.00    -0.273 OA
ATOM      9  H   UNL     1      18.154  10.387  -4.715  1.00  0.00     0.164 HD
BRANCH   7  10
ATOM     10  CA  PHE A   2      15.651  11.316  -5.063  1.00  0.00     0.175 C 
BRANCH  10  11
ATOM     11  N   PHE A   2      14.466  11.750  -5.788  1.00  0.00    -0.343 N 
ATOM     12  C   HIS A   1      13.907  13.049  -5.626  1.00  0.00     0.237 C 
ATOM     13  O   HIS A   1      14.439  13.861  -4.820  1.00  0.00    -0.273 OA
ATOM     14  H   UNL     1      14.005  11.062  -6.419  1.00  0.00     0.164 HD
BRANCH  12  15
ATOM     15  CA  HIS A   1      12.649  13.420  -6.375  1.00  0.00     0.147 C 
BRANCH  15  16
ATOM     16  N   HIS A   1      12.488  14.876  -6.388  1.00  0.00    -0.320 NA
ATOM     17  H   UNL     1      11.583  15.106  -6.860  1.00  0.00     0.119 HD
ATOM     18  H   UNL     1      12.369  15.208  -5.403  1.00  0.00     0.119 HD
ENDBRANCH  15  16
BRANCH  15  19
ATOM     19  CB  HIS A   1      12.674  12.889  -7.835  1.00  0.00     0.086 C 
BRANCH  19  20
ATOM     20  CG  HIS A   1      12.020  11.543  -7.981  1.00  0.00     0.060 A 
ATOM     21  ND1 HIS A   1      10.786  11.244  -7.528  1.00  0.00    -0.242 NA
ATOM     22  CD2 HIS A   1      12.542  10.462  -8.659  1.00  0.00     0.107 A 
ATOM     23  CE1 HIS A   1      10.594   9.968  -7.924  1.00  0.00     0.196 A 
ATOM     24  NE2 HIS A   1      11.640   9.471  -8.610  1.00  0.00    -0.351 N 
ATOM     25  H   UNL     1      11.728   8.517  -9.024  1.00  0.00     0.167 HD
ENDBRANCH  19  20
ENDBRANCH  15  19
ENDBRANCH  12  15
ENDBRANCH  10  11
BRANCH  10  26
ATOM     26  CB  PHE A   2      15.602   9.777  -4.891  1.00  0.00     0.070 C 
BRANCH  26  27
ATOM     27  CG  PHE A   2      14.430   9.296  -4.098  1.00  0.00    -0.045 A 
ATOM     28  CD1 PHE A   2      13.896  10.050  -3.036  1.00  0.00     0.004 A 
ATOM     29  CD2 PHE A   2      13.961   7.993  -4.313  1.00  0.00     0.004 A 
ATOM     30  CE1 PHE A   2      12.866   9.536  -2.259  1.00  0.00     0.000 A 
ATOM     31  CE2 PHE A   2      12.937   7.478  -3.520  1.00  0.00     0.000 A 
ATOM     32  CZ  PHE A   2      12.385   8.252  -2.500  1.00  0.00     0.000 A 
ENDBRANCH  26  27
ENDBRANCH  10  26
ENDBRANCH   7  10
ENDBRANCH   5   6
BRANCH   5  33
ATOM     33  CB  LEU A   3      20.164  12.253  -5.215  1.00  0.00     0.038 C 
BRANCH  33  34
ATOM     34  CG  LEU A   3      20.417  11.679  -3.790  1.00  0.00    -0.015 C 
ATOM     35  CD1 LEU A   3      21.819  12.066  -3.316  1.00  0.00     0.007 C 
ATOM     36  CD2 LEU A   3      19.369  12.170  -2.780  1.00  0.00     0.007 C 
ENDBRANCH  33  34
ENDBRANCH   5  33
ENDBRANCH   1   5
BRANCH   3  37
ATOM     37  CA  GLN A   4      21.349   8.755  -8.151  1.00  0.00     0.171 C 
BRANCH  37  38
ATOM     38  C   GLN A   4      22.714   9.212  -8.527  1.00  0.00     0.243 C 
ATOM     39  N   ARG A   5      23.822   8.713  -7.791  1.00  0.00    -0.343 N 
ATOM     40  O   GLN A   4      22.880  10.034  -9.469  1.00  0.00    -0.273 OA
ATOM     41  H   UNL     1      23.666   7.995  -7.046  1.00  0.00     0.164 HD
BRANCH  39  42
ATOM     42  CA  ARG A   5      25.185   9.120  -8.073  1.00  0.00     0.171 C 
BRANCH  42  43
ATOM     43  C   ARG A   5      25.903   7.969  -8.686  1.00  0.00     0.243 C 
ATOM     44  N   ASN A   6      25.914   7.865 -10.102  1.00  0.00    -0.341 N 
ATOM     45  O   ARG A   5      26.450   7.088  -7.970  1.00  0.00    -0.273 OA
ATOM     46  H   UNL     1      25.488   8.647 -10.651  1.00  0.00     0.164 HD
BRANCH  44  47
ATOM     47  CA  ASN A   6      26.543   6.751 -10.804  1.00  0.00     0.201 C 
BRANCH  47  48
ATOM     48  C   ASN A   6      27.993   6.642 -10.416  1.00  0.00     0.326 C 
ATOM     49  O   ASN A   6      28.794   7.579 -10.677  1.00  0.00    -0.250 OA
BRANCH  48  50
ATOM     50  OXT ASN A   6      28.452   5.499  -9.769  1.00  0.00    -0.480 OA
ATOM     51  H   UNL     1      29.424   5.408  -9.500  1.00  0.00     0.296 HD
ENDBRANCH  48  50
ENDBRANCH  47  48
BRANCH  47  52
ATOM     52  CB  ASN A   6      26.425   6.947 -12.323  1.00  0.00     0.136 C 
BRANCH  52  53
ATOM     53  CG  ASN A   6      25.011   7.181 -12.773  1.00  0.00     0.220 C 
ATOM     54  ND2 ASN A   6      24.754   8.091 -13.833  1.00  0.00    -0.370 N 
ATOM     55  OD1 ASN A   6      24.054   6.557 -12.243  1.00  0.00    -0.275 OA
ATOM     56  H   UNL     1      23.775   8.258 -14.157  1.00  0.00     0.159 HD
ATOM     57  H   UNL     1      25.533   8.600 -14.306  1.00  0.00     0.159 HD
ENDBRANCH  52  53
ENDBRANCH  47  52
ENDBRANCH  44  47
ENDBRANCH  42  43
BRANCH  42  58
ATOM     58  CB  ARG A   5      25.859   9.602  -6.793  1.00  0.00     0.037 C 
BRANCH  58  59
ATOM     59  CG  ARG A   5      25.163  10.858  -6.269  1.00  0.00     0.024 C 
BRANCH  59  60
ATOM     60  CD  ARG A   5      25.838  11.391  -5.014  1.00  0.00     0.116 C 
BRANCH  60  61
ATOM     61  NE  ARG A   5      25.378  10.686  -3.820  1.00  0.00    -0.357 N 
ATOM     62  CZ  ARG A   5      25.469  11.281  -2.526  1.00  0.00     0.185 C 
ATOM     63  NH2 ARG A   5      26.107  12.546  -2.352  1.00  0.00    -0.370 N 
ATOM     64  H   UNL     1      24.895   9.763  -3.911  1.00  0.00     0.163 HD
ATOM     65  H   UNL     1      26.080  13.024  -1.423  1.00  0.00     0.159 HD
ATOM     66  H   UNL     1      26.696  12.982  -3.093  1.00  0.00     0.159 HD
BRANCH  62  67
ATOM     67  NH1 ARG A   5      24.954  10.672  -1.507  1.00  0.00    -0.270 NA
ATOM     68  H   UNL     1      24.995  11.077  -0.545  1.00  0.00     0.191 HD
ENDBRANCH  62  67
ENDBRANCH  60  61
ENDBRANCH  59  60
ENDBRANCH  58  59
ENDBRANCH  42  58
ENDBRANCH  39  42
ENDBRANCH  37  38
BRANCH  37  69
ATOM     69  CB  GLN A   4      20.658   7.993  -9.286  1.00  0.00     0.045 C 
BRANCH  69  70
ATOM     70  CG  GLN A   4      21.451   6.767  -9.763  1.00  0.00     0.102 C 
BRANCH  70  71
ATOM     71  CD  GLN A   4      21.757   5.806  -8.646  1.00  0.00     0.217 C 
ATOM     72  NE2 GLN A   4      23.105   5.442  -8.351  1.00  0.00    -0.370 N 
ATOM     73  OE1 GLN A   4      20.815   5.300  -7.980  1.00  0.00    -0.275 OA
ATOM     74  H   UNL     1      23.898   5.819  -8.915  1.00  0.00     0.159 HD
ATOM     75  H   UNL     1      23.313   4.783  -7.568  1.00  0.00     0.159 HD
ENDBRANCH  70  71
ENDBRANCH  69  70
ENDBRANCH  37  69
ENDBRANCH   3  37
TORSDOF 29
