REMARK SMILES CC(C)C[C@H](NC(=O)[C@H](Cc1ccccc1)NC(=O)[C@@H](N)CO)C(=O)N[C@@H](CC(N)=O)C(=O)N[C@@H](CCCNC(=N)N)C(=O)NCC(=O)O
REMARK SMILES IDX 24 1 25 2 26 3 5 5 6 6 7 7 8 8 9 10 17 11 18 12 19 13 20 15
REMARK SMILES IDX 21 16 22 19 23 20 10 22 11 23 12 24 16 25 13 26 15 27 14 28
REMARK SMILES IDX 4 29 2 30 1 31 3 32 27 33 32 34 34 35 33 36 35 38 43 39
REMARK SMILES IDX 45 40 44 41 46 43 47 44 48 45 49 46 36 48 37 49 38 50 39 51
REMARK SMILES IDX 40 52 42 53 41 57 28 59 29 60 30 61 31 62
REMARK H PARENT 26 4 6 9 17 14 21 17 21 18 23 21 34 37 45 42 49 47 39 54 42 55
REMARK H PARENT 42 56 41 58 30 63 30 64
ROOT
ATOM      1  C   LEU A   3      20.055  10.080  -6.478  1.00  0.00     0.243 C 
ATOM      2  O   LEU A   3      20.168   9.157  -5.624  1.00  0.00    -0.273 OA
ATOM      3  N   ASN A   4      20.564   9.908  -7.788  1.00  0.00    -0.342 N 
ATOM      4  H   UNL     1      20.399  10.649  -8.507  1.00  0.00     0.164 HD
ENDROOT
BRANCH   1   5
ATOM      5  CA  LEU A   3      19.342  11.351  -6.148  1.00  0.00     0.171 C 
BRANCH   5   6
ATOM      6  N   LEU A   3      18.083  11.019  -5.539  1.00  0.00    -0.343 N 
ATOM      7  C   PHE A   2      16.887  11.745  -5.776  1.00  0.00     0.243 C 
ATOM      8  O   PHE A   2      16.906  12.796  -6.474  1.00  0.00    -0.273 OA
ATOM      9  H   UNL     1      18.156  10.385  -4.719  1.00  0.00     0.164 HD
BRANCH   7  10
ATOM     10  CA  PHE A   2      15.652  11.314  -5.057  1.00  0.00     0.175 C 
BRANCH  10  11
ATOM     11  N   PHE A   2      14.456  11.740  -5.769  1.00  0.00    -0.343 N 
ATOM     12  C   SER A   1      13.914  13.049  -5.637  1.00  0.00     0.239 C 
ATOM     13  O   SER A   1      14.442  13.869  -4.836  1.00  0.00    -0.273 OA
ATOM     14  H   UNL     1      13.876  11.000  -6.221  1.00  0.00     0.164 HD
BRANCH  12  15
ATOM     15  CA  SER A   1      12.661  13.410  -6.390  1.00  0.00     0.167 C 
BRANCH  15  16
ATOM     16  N   SER A   1      12.475  14.863  -6.375  1.00  0.00    -0.318 NA
ATOM     17  H   UNL     1      13.175  15.314  -7.009  1.00  0.00     0.119 HD
ATOM     18  H   UNL     1      11.521  15.090  -6.739  1.00  0.00     0.119 HD
ENDBRANCH  15  16
BRANCH  15  19
ATOM     19  CB  SER A   1      12.688  12.878  -7.844  1.00  0.00     0.184 C 
BRANCH  19  20
ATOM     20  OG  SER A   1      11.436  13.047  -8.450  1.00  0.00    -0.394 OA
ATOM     21  H   UNL     1      11.447  13.936  -8.892  1.00  0.00     0.210 HD
ENDBRANCH  19  20
ENDBRANCH  15  19
ENDBRANCH  12  15
ENDBRANCH  10  11
BRANCH  10  22
ATOM     22  CB  PHE A   2      15.610   9.774  -4.880  1.00  0.00     0.070 C 
BRANCH  22  23
ATOM     23  CG  PHE A   2      14.435   9.292  -4.092  1.00  0.00    -0.045 A 
ATOM     24  CD1 PHE A   2      13.897  10.048  -3.033  1.00  0.00     0.004 A 
ATOM     25  CD2 PHE A   2      13.964   7.991  -4.310  1.00  0.00     0.004 A 
ATOM     26  CE1 PHE A   2      12.866   9.535  -2.258  1.00  0.00     0.000 A 
ATOM     27  CE2 PHE A   2      12.937   7.477  -3.520  1.00  0.00     0.000 A 
ATOM     28  CZ  PHE A   2      12.384   8.252  -2.500  1.00  0.00     0.000 A 
ENDBRANCH  22  23
ENDBRANCH  10  22
ENDBRANCH   7  10
ENDBRANCH   5   6
BRANCH   5  29
ATOM     29  CB  LEU A   3      20.165  12.251  -5.217  1.00  0.00     0.038 C 
BRANCH  29  30
ATOM     30  CG  LEU A   3      20.417  11.679  -3.791  1.00  0.00    -0.015 C 
ATOM     31  CD1 LEU A   3      21.819  12.066  -3.317  1.00  0.00     0.007 C 
ATOM     32  CD2 LEU A   3      19.369  12.169  -2.781  1.00  0.00     0.007 C 
ENDBRANCH  29  30
ENDBRANCH   5  29
ENDBRANCH   1   5
BRANCH   3  33
ATOM     33  CA  ASN A   4      21.345   8.743  -8.162  1.00  0.00     0.180 C 
BRANCH  33  34
ATOM     34  C   ASN A   4      22.712   9.206  -8.532  1.00  0.00     0.243 C 
ATOM     35  N   ARG A   5      23.820   8.708  -7.798  1.00  0.00    -0.343 N 
ATOM     36  O   ASN A   4      22.876  10.035  -9.468  1.00  0.00    -0.273 OA
ATOM     37  H   UNL     1      23.666   7.984  -7.059  1.00  0.00     0.164 HD
BRANCH  35  38
ATOM     38  CA  ARG A   5      25.183   9.116  -8.086  1.00  0.00     0.171 C 
BRANCH  38  39
ATOM     39  C   ARG A   5      25.899   7.960  -8.698  1.00  0.00     0.243 C 
ATOM     40  N   GLY A   6      25.893   7.824 -10.117  1.00  0.00    -0.343 N 
ATOM     41  O   ARG A   5      26.456   7.092  -7.973  1.00  0.00    -0.273 OA
ATOM     42  H   UNL     1      25.400   8.537 -10.701  1.00  0.00     0.164 HD
BRANCH  40  43
ATOM     43  CA  GLY A   6      26.552   6.716 -10.794  1.00  0.00     0.238 C 
BRANCH  43  44
ATOM     44  C   GLY A   6      28.001   6.644 -10.415  1.00  0.00     0.322 C 
ATOM     45  O   GLY A   6      28.782   7.588 -10.704  1.00  0.00    -0.250 OA
BRANCH  44  46
ATOM     46  OXT GLY A   6      28.483   5.527  -9.739  1.00  0.00    -0.480 OA
ATOM     47  H   UNL     1      29.459   5.462  -9.473  1.00  0.00     0.296 HD
ENDBRANCH  44  46
ENDBRANCH  43  44
ENDBRANCH  40  43
ENDBRANCH  38  39
BRANCH  38  48
ATOM     48  CB  ARG A   5      25.859   9.601  -6.805  1.00  0.00     0.037 C 
BRANCH  48  49
ATOM     49  CG  ARG A   5      25.162  10.854  -6.274  1.00  0.00     0.024 C 
BRANCH  49  50
ATOM     50  CD  ARG A   5      25.838  11.387  -5.017  1.00  0.00     0.116 C 
BRANCH  50  51
ATOM     51  NE  ARG A   5      25.377  10.685  -3.822  1.00  0.00    -0.357 N 
ATOM     52  CZ  ARG A   5      25.469  11.281  -2.528  1.00  0.00     0.185 C 
ATOM     53  NH2 ARG A   5      26.107  12.546  -2.354  1.00  0.00    -0.370 N 
ATOM     54  H   UNL     1      24.895   9.761  -3.913  1.00  0.00     0.163 HD
ATOM     55  H   UNL     1      26.081  13.023  -1.426  1.00  0.00     0.159 HD
ATOM     56  H   UNL     1      26.695  12.982  -3.097  1.00  0.00     0.159 HD
BRANCH  52  57
ATOM     57  NH1 ARG A   5      24.955  10.672  -1.508  1.00  0.00    -0.270 NA
ATOM     58  H   UNL     1      24.996  11.077  -0.546  1.00  0.00     0.191 HD
ENDBRANCH  52  57
ENDBRANCH  50  51
ENDBRANCH  49  50
ENDBRANCH  48  49
ENDBRANCH  38  48
ENDBRANCH  35  38
ENDBRANCH  33  34
BRANCH  33  59
ATOM     59  CB  ASN A   4      20.659   8.003  -9.312  1.00  0.00     0.134 C 
BRANCH  59  60
ATOM     60  CG  ASN A   4      21.438   6.790  -9.741  1.00  0.00     0.220 C 
ATOM     61  ND2 ASN A   4      21.378   5.587  -8.976  1.00  0.00    -0.370 N 
ATOM     62  OD1 ASN A   4      22.178   6.847 -10.759  1.00  0.00    -0.275 OA
ATOM     63  H   UNL     1      20.784   5.530  -8.119  1.00  0.00     0.159 HD
ATOM     64  H   UNL     1      21.934   4.751  -9.264  1.00  0.00     0.159 HD
ENDBRANCH  59  60
ENDBRANCH  33  59
ENDBRANCH   3  33
TORSDOF 26
