REMARK SMILES CC(C)C[C@H](NC(=O)[C@H](CO)NC(=O)[C@H](Cc1ccccc1)NC(=O)[C@H](C)N)C(=O)N[C@@H](CCCNC(=N)N)C(=O)N[C@@H](CC(N)=O)C(=O)O
REMARK SMILES IDX 5 1 6 2 7 3 8 4 9 6 12 7 13 8 14 9 15 11 23 12 24 13 25 14
REMARK SMILES IDX 26 16 27 17 28 18 16 21 17 22 18 23 22 24 19 25 21 26 20 27
REMARK SMILES IDX 10 28 11 29 29 31 31 32 30 33 32 35 40 36 42 37 41 38 43 40
REMARK SMILES IDX 48 41 49 42 50 43 44 45 45 46 46 47 47 48 33 51 34 52 35 53
REMARK SMILES IDX 36 54 37 55 39 56 38 60 4 62 2 63 1 64 3 65
REMARK H PARENT 6 5 12 10 23 15 28 19 28 20 11 30 31 34 42 39 50 44 46 49
REMARK H PARENT 46 50 36 57 39 58 39 59 38 61
ROOT
ATOM      1  CA  LEU A   4      21.346   8.759  -8.136  1.00  0.00     0.171 C 
ENDROOT
BRANCH   1   2
ATOM      2  N   LEU A   4      20.560   9.921  -7.772  1.00  0.00    -0.342 N 
ATOM      3  C   SER A   3      20.045  10.101  -6.461  1.00  0.00     0.245 C 
ATOM      4  O   SER A   3      20.174   9.199  -5.586  1.00  0.00    -0.273 OA
ATOM      5  H   UNL     1      20.391  10.655  -8.497  1.00  0.00     0.164 HD
BRANCH   3   6
ATOM      6  CA  SER A   3      19.342  11.376  -6.144  1.00  0.00     0.197 C 
BRANCH   6   7
ATOM      7  N   SER A   3      18.095  11.059  -5.494  1.00  0.00    -0.340 N 
ATOM      8  C   PHE A   2      16.889  11.752  -5.775  1.00  0.00     0.243 C 
ATOM      9  O   PHE A   2      16.903  12.792  -6.490  1.00  0.00    -0.273 OA
ATOM     10  H   UNL     1      18.185  10.555  -4.585  1.00  0.00     0.164 HD
BRANCH   8  11
ATOM     11  CA  PHE A   2      15.650  11.317  -5.069  1.00  0.00     0.175 C 
BRANCH  11  12
ATOM     12  N   PHE A   2      14.465  11.750  -5.795  1.00  0.00    -0.343 N 
ATOM     13  C   ALA A   1      13.906  13.049  -5.629  1.00  0.00     0.237 C 
ATOM     14  O   ALA A   1      14.431  13.861  -4.819  1.00  0.00    -0.273 OA
ATOM     15  H   UNL     1      14.007  11.067  -6.438  1.00  0.00     0.164 HD
BRANCH  13  16
ATOM     16  CA  ALA A   1      12.657  13.423  -6.382  1.00  0.00     0.138 C 
ATOM     17  CB  ALA A   1      12.676  12.885  -7.826  1.00  0.00     0.035 C 
BRANCH  16  18
ATOM     18  N   ALA A   1      12.490  14.876  -6.383  1.00  0.00    -0.320 NA
ATOM     19  H   UNL     1      11.552  15.109  -6.785  1.00  0.00     0.119 HD
ATOM     20  H   UNL     1      13.214  15.308  -7.004  1.00  0.00     0.119 HD
ENDBRANCH  16  18
ENDBRANCH  13  16
ENDBRANCH  11  12
BRANCH  11  21
ATOM     21  CB  PHE A   2      15.610   9.779  -4.901  1.00  0.00     0.070 C 
BRANCH  21  22
ATOM     22  CG  PHE A   2      14.444   9.293  -4.095  1.00  0.00    -0.045 A 
ATOM     23  CD1 PHE A   2      13.904  10.049  -3.036  1.00  0.00     0.004 A 
ATOM     24  CD2 PHE A   2      13.970   7.992  -4.312  1.00  0.00     0.004 A 
ATOM     25  CE1 PHE A   2      12.871   9.537  -2.261  1.00  0.00     0.000 A 
ATOM     26  CE2 PHE A   2      12.942   7.478  -3.522  1.00  0.00     0.000 A 
ATOM     27  CZ  PHE A   2      12.389   8.254  -2.502  1.00  0.00     0.000 A 
ENDBRANCH  21  22
ENDBRANCH  11  21
ENDBRANCH   8  11
ENDBRANCH   6   7
BRANCH   6  28
ATOM     28  CB  SER A   3      20.188  12.245  -5.217  1.00  0.00     0.191 C 
BRANCH  28  29
ATOM     29  OG  SER A   3      19.540  13.464  -4.979  1.00  0.00    -0.394 OA
ATOM     30  H   UNL     1      20.134  13.978  -4.372  1.00  0.00     0.210 HD
ENDBRANCH  28  29
ENDBRANCH   6  28
ENDBRANCH   3   6
ENDBRANCH   1   2
BRANCH   1  31
ATOM     31  C   LEU A   4      22.711   9.216  -8.518  1.00  0.00     0.243 C 
ATOM     32  N   ARG A   5      23.821   8.720  -7.784  1.00  0.00    -0.343 N 
ATOM     33  O   LEU A   4      22.875  10.032  -9.466  1.00  0.00    -0.273 OA
ATOM     34  H   UNL     1      23.667   8.029  -7.015  1.00  0.00     0.164 HD
BRANCH  32  35
ATOM     35  CA  ARG A   5      25.185   9.122  -8.073  1.00  0.00     0.171 C 
BRANCH  35  36
ATOM     36  C   ARG A   5      25.899   7.968  -8.686  1.00  0.00     0.243 C 
ATOM     37  N   ASN A   6      25.913   7.864 -10.102  1.00  0.00    -0.341 N 
ATOM     38  O   ARG A   5      26.447   7.087  -7.969  1.00  0.00    -0.273 OA
ATOM     39  H   UNL     1      25.489   8.647 -10.651  1.00  0.00     0.164 HD
BRANCH  37  40
ATOM     40  CA  ASN A   6      26.542   6.751 -10.804  1.00  0.00     0.201 C 
BRANCH  40  41
ATOM     41  C   ASN A   6      27.993   6.642 -10.416  1.00  0.00     0.326 C 
ATOM     42  O   ASN A   6      28.794   7.579 -10.677  1.00  0.00    -0.250 OA
BRANCH  41  43
ATOM     43  OXT ASN A   6      28.451   5.499  -9.768  1.00  0.00    -0.480 OA
ATOM     44  H   UNL     1      29.424   5.409  -9.500  1.00  0.00     0.296 HD
ENDBRANCH  41  43
ENDBRANCH  40  41
BRANCH  40  45
ATOM     45  CB  ASN A   6      26.424   6.946 -12.323  1.00  0.00     0.136 C 
BRANCH  45  46
ATOM     46  CG  ASN A   6      25.010   7.180 -12.773  1.00  0.00     0.220 C 
ATOM     47  ND2 ASN A   6      24.753   8.090 -13.833  1.00  0.00    -0.370 N 
ATOM     48  OD1 ASN A   6      24.053   6.558 -12.243  1.00  0.00    -0.275 OA
ATOM     49  H   UNL     1      25.533   8.600 -14.306  1.00  0.00     0.159 HD
ATOM     50  H   UNL     1      23.775   8.258 -14.156  1.00  0.00     0.159 HD
ENDBRANCH  45  46
ENDBRANCH  40  45
ENDBRANCH  37  40
ENDBRANCH  35  36
BRANCH  35  51
ATOM     51  CB  ARG A   5      25.863   9.605  -6.796  1.00  0.00     0.037 C 
BRANCH  51  52
ATOM     52  CG  ARG A   5      25.167  10.861  -6.272  1.00  0.00     0.024 C 
BRANCH  52  53
ATOM     53  CD  ARG A   5      25.842  11.391  -5.015  1.00  0.00     0.116 C 
BRANCH  53  54
ATOM     54  NE  ARG A   5      25.378  10.685  -3.823  1.00  0.00    -0.357 N 
ATOM     55  CZ  ARG A   5      25.468  11.279  -2.527  1.00  0.00     0.185 C 
ATOM     56  NH2 ARG A   5      26.106  12.541  -2.350  1.00  0.00    -0.370 N 
ATOM     57  H   UNL     1      24.904   9.757  -3.922  1.00  0.00     0.163 HD
ATOM     58  H   UNL     1      26.083  13.006  -1.415  1.00  0.00     0.159 HD
ATOM     59  H   UNL     1      26.693  12.983  -3.090  1.00  0.00     0.159 HD
BRANCH  55  60
ATOM     60  NH1 ARG A   5      24.959  10.678  -1.500  1.00  0.00    -0.270 NA
ATOM     61  H   UNL     1      24.478   9.755  -1.583  1.00  0.00     0.191 HD
ENDBRANCH  55  60
ENDBRANCH  53  54
ENDBRANCH  52  53
ENDBRANCH  51  52
ENDBRANCH  35  51
ENDBRANCH  32  35
ENDBRANCH   1  31
BRANCH   1  62
ATOM     62  CB  LEU A   4      20.654   7.998  -9.270  1.00  0.00     0.038 C 
BRANCH  62  63
ATOM     63  CG  LEU A   4      21.448   6.771  -9.767  1.00  0.00    -0.015 C 
ATOM     64  CD1 LEU A   4      21.762   5.778  -8.639  1.00  0.00     0.007 C 
ATOM     65  CD2 LEU A   4      20.662   6.067 -10.877  1.00  0.00     0.007 C 
ENDBRANCH  62  63
ENDBRANCH   1  62
TORSDOF 26
