REMARK SMILES C[C@H](NC(=O)[C@H](CCCNC(=N)N)NC(=O)[C@H](Cc1ccccc1)NC(=O)[C@@H](N)CO)C(=O)N[C@@H](CCCNC(=N)N)C(=O)N[C@@H](CC(N)=O)C(=O)O
REMARK SMILES IDX 4 1 5 2 3 3 6 5 14 6 15 7 16 8 17 10 25 11 26 12 27 13 28 15
REMARK SMILES IDX 29 16 30 19 31 20 18 22 19 23 20 24 24 25 21 26 23 27 22 28
REMARK SMILES IDX 7 29 8 30 9 31 10 32 11 33 13 34 12 38 2 40 1 41 32 42 34 43
REMARK SMILES IDX 33 44 35 46 43 47 45 48 44 49 46 51 51 52 52 53 53 54 47 56
REMARK SMILES IDX 48 57 49 58 50 59 36 62 37 63 38 64 39 65 40 66 42 67 41 71
REMARK H PARENT 3 4 14 9 25 14 29 17 29 18 31 21 10 35 13 36 13 37 12 39 34 45
REMARK H PARENT 45 50 53 55 49 60 49 61 39 68 42 69 42 70 41 72
ROOT
ATOM      1  C   ARG A   3      20.039  10.077  -6.473  1.00  0.00     0.243 C 
ATOM      2  O   ARG A   3      20.154   9.156  -5.618  1.00  0.00    -0.273 OA
ATOM      3  N   ALA A   4      20.560   9.910  -7.781  1.00  0.00    -0.343 N 
ATOM      4  H   UNL     1      20.401  10.655  -8.499  1.00  0.00     0.164 HD
ENDROOT
BRANCH   1   5
ATOM      5  CA  ARG A   3      19.338  11.353  -6.141  1.00  0.00     0.171 C 
BRANCH   5   6
ATOM      6  N   ARG A   3      18.087  11.047  -5.497  1.00  0.00    -0.343 N 
ATOM      7  C   PHE A   2      16.886  11.749  -5.772  1.00  0.00     0.243 C 
ATOM      8  O   PHE A   2      16.903  12.791  -6.483  1.00  0.00    -0.273 OA
ATOM      9  H   UNL     1      18.164  10.512  -4.607  1.00  0.00     0.164 HD
BRANCH   7  10
ATOM     10  CA  PHE A   2      15.650  11.314  -5.059  1.00  0.00     0.175 C 
BRANCH  10  11
ATOM     11  N   PHE A   2      14.454  11.741  -5.769  1.00  0.00    -0.343 N 
ATOM     12  C   SER A   1      13.915  13.051  -5.637  1.00  0.00     0.239 C 
ATOM     13  O   SER A   1      14.443  13.871  -4.836  1.00  0.00    -0.273 OA
ATOM     14  H   UNL     1      13.865  11.002  -6.210  1.00  0.00     0.164 HD
BRANCH  12  15
ATOM     15  CA  SER A   1      12.661  13.411  -6.389  1.00  0.00     0.167 C 
BRANCH  15  16
ATOM     16  N   SER A   1      12.471  14.863  -6.376  1.00  0.00    -0.318 NA
ATOM     17  H   UNL     1      13.202  15.318  -6.972  1.00  0.00     0.119 HD
ATOM     18  H   UNL     1      11.539  15.087  -6.794  1.00  0.00     0.119 HD
ENDBRANCH  15  16
BRANCH  15  19
ATOM     19  CB  SER A   1      12.687  12.879  -7.845  1.00  0.00     0.184 C 
BRANCH  19  20
ATOM     20  OG  SER A   1      11.436  13.048  -8.451  1.00  0.00    -0.394 OA
ATOM     21  H   UNL     1      10.832  12.368  -8.054  1.00  0.00     0.210 HD
ENDBRANCH  19  20
ENDBRANCH  15  19
ENDBRANCH  12  15
ENDBRANCH  10  11
BRANCH  10  22
ATOM     22  CB  PHE A   2      15.612   9.774  -4.891  1.00  0.00     0.070 C 
BRANCH  22  23
ATOM     23  CG  PHE A   2      14.444   9.289  -4.090  1.00  0.00    -0.045 A 
ATOM     24  CD1 PHE A   2      13.903  10.047  -3.033  1.00  0.00     0.004 A 
ATOM     25  CD2 PHE A   2      13.968   7.990  -4.310  1.00  0.00     0.004 A 
ATOM     26  CE1 PHE A   2      12.869   9.535  -2.260  1.00  0.00     0.000 A 
ATOM     27  CE2 PHE A   2      12.939   7.477  -3.521  1.00  0.00     0.000 A 
ATOM     28  CZ  PHE A   2      12.386   8.252  -2.502  1.00  0.00     0.000 A 
ENDBRANCH  22  23
ENDBRANCH  10  22
ENDBRANCH   7  10
ENDBRANCH   5   6
BRANCH   5  29
ATOM     29  CB  ARG A   3      20.190  12.249  -5.238  1.00  0.00     0.037 C 
BRANCH  29  30
ATOM     30  CG  ARG A   3      20.431  11.697  -3.813  1.00  0.00     0.024 C 
BRANCH  30  31
ATOM     31  CD  ARG A   3      21.816  12.081  -3.296  1.00  0.00     0.116 C 
BRANCH  31  32
ATOM     32  NE  ARG A   3      21.910  13.527  -3.088  1.00  0.00    -0.357 N 
ATOM     33  CZ  ARG A   3      22.634  14.413  -3.955  1.00  0.00     0.185 C 
ATOM     34  NH2 ARG A   3      22.636  15.817  -3.685  1.00  0.00    -0.370 N 
ATOM     35  H   UNL     1      21.362  13.940  -2.300  1.00  0.00     0.163 HD
ATOM     36  H   UNL     1      22.116  16.198  -2.864  1.00  0.00     0.159 HD
ATOM     37  H   UNL     1      23.154  16.481  -4.302  1.00  0.00     0.159 HD
BRANCH  33  38
ATOM     38  NH1 ARG A   3      23.281  13.950  -4.977  1.00  0.00    -0.270 NA
ATOM     39  H   UNL     1      23.814  14.576  -5.621  1.00  0.00     0.191 HD
ENDBRANCH  33  38
ENDBRANCH  31  32
ENDBRANCH  30  31
ENDBRANCH  29  30
ENDBRANCH   5  29
ENDBRANCH   1   5
BRANCH   3  40
ATOM     40  CA  ALA A   4      21.341   8.746  -8.154  1.00  0.00     0.168 C 
ATOM     41  CB  ALA A   4      20.664   8.005  -9.297  1.00  0.00     0.041 C 
BRANCH  40  42
ATOM     42  C   ALA A   4      22.709   9.198  -8.531  1.00  0.00     0.242 C 
ATOM     43  N   ARG A   5      23.816   8.707  -7.790  1.00  0.00    -0.343 N 
ATOM     44  O   ALA A   4      22.875  10.026  -9.469  1.00  0.00    -0.273 OA
ATOM     45  H   UNL     1      23.661   7.985  -7.049  1.00  0.00     0.164 HD
BRANCH  43  46
ATOM     46  CA  ARG A   5      25.180   9.117  -8.072  1.00  0.00     0.171 C 
BRANCH  46  47
ATOM     47  C   ARG A   5      25.901   7.968  -8.686  1.00  0.00     0.243 C 
ATOM     48  N   ASN A   6      25.916   7.866 -10.103  1.00  0.00    -0.341 N 
ATOM     49  O   ARG A   5      26.449   7.087  -7.970  1.00  0.00    -0.273 OA
ATOM     50  H   UNL     1      25.496   8.651 -10.651  1.00  0.00     0.164 HD
BRANCH  48  51
ATOM     51  CA  ASN A   6      26.543   6.751 -10.804  1.00  0.00     0.201 C 
BRANCH  51  52
ATOM     52  C   ASN A   6      27.994   6.642 -10.417  1.00  0.00     0.326 C 
ATOM     53  O   ASN A   6      28.795   7.579 -10.677  1.00  0.00    -0.250 OA
BRANCH  52  54
ATOM     54  OXT ASN A   6      28.453   5.498  -9.772  1.00  0.00    -0.480 OA
ATOM     55  H   UNL     1      29.426   5.407  -9.504  1.00  0.00     0.296 HD
ENDBRANCH  52  54
ENDBRANCH  51  52
BRANCH  51  56
ATOM     56  CB  ASN A   6      26.424   6.946 -12.323  1.00  0.00     0.136 C 
BRANCH  56  57
ATOM     57  CG  ASN A   6      25.009   7.181 -12.772  1.00  0.00     0.220 C 
ATOM     58  ND2 ASN A   6      24.753   8.089 -13.834  1.00  0.00    -0.370 N 
ATOM     59  OD1 ASN A   6      24.051   6.563 -12.238  1.00  0.00    -0.275 OA
ATOM     60  H   UNL     1      25.533   8.595 -14.309  1.00  0.00     0.159 HD
ATOM     61  H   UNL     1      23.775   8.258 -14.156  1.00  0.00     0.159 HD
ENDBRANCH  56  57
ENDBRANCH  51  56
ENDBRANCH  48  51
ENDBRANCH  46  47
BRANCH  46  62
ATOM     62  CB  ARG A   5      25.855   9.600  -6.794  1.00  0.00     0.037 C 
BRANCH  62  63
ATOM     63  CG  ARG A   5      25.166  10.860  -6.271  1.00  0.00     0.024 C 
BRANCH  63  64
ATOM     64  CD  ARG A   5      25.847  11.385  -5.015  1.00  0.00     0.116 C 
BRANCH  64  65
ATOM     65  NE  ARG A   5      25.375  10.685  -3.823  1.00  0.00    -0.357 N 
ATOM     66  CZ  ARG A   5      25.466  11.280  -2.527  1.00  0.00     0.185 C 
ATOM     67  NH2 ARG A   5      26.103  12.543  -2.350  1.00  0.00    -0.370 N 
ATOM     68  H   UNL     1      24.892   9.763  -3.921  1.00  0.00     0.163 HD
ATOM     69  H   UNL     1      26.692  12.984  -3.090  1.00  0.00     0.159 HD
ATOM     70  H   UNL     1      26.075  13.011  -1.417  1.00  0.00     0.159 HD
BRANCH  66  71
ATOM     71  NH1 ARG A   5      24.956  10.681  -1.500  1.00  0.00    -0.270 NA
ATOM     72  H   UNL     1      24.473   9.758  -1.584  1.00  0.00     0.191 HD
ENDBRANCH  66  71
ENDBRANCH  64  65
ENDBRANCH  63  64
ENDBRANCH  62  63
ENDBRANCH  46  62
ENDBRANCH  43  46
ENDBRANCH  40  42
ENDBRANCH   3  40
TORSDOF 29
