REMARK SMILES CC(C)C[C@H](NC(=O)[C@H](Cc1ccccc1)NC(=O)[C@@H](N)CO)C(=O)N[C@@H](CCCNC(=N)N)C(=O)N[C@@H](C)C(=O)N[C@@H](CC(N)=O)C(=O)O
REMARK SMILES IDX 24 1 25 2 26 3 5 5 6 6 7 7 8 8 9 10 17 11 18 12 19 13 20 15
REMARK SMILES IDX 21 16 22 19 23 20 10 22 11 23 12 24 16 25 13 26 15 27 14 28
REMARK SMILES IDX 4 29 2 30 1 31 3 32 27 33 35 34 37 35 36 36 38 38 39 39
REMARK SMILES IDX 40 40 42 41 41 42 43 44 48 45 49 46 50 47 44 49 45 50 46 51
REMARK SMILES IDX 47 52 28 55 29 56 30 57 31 58 32 59 34 60 33 64
REMARK H PARENT 26 4 6 9 17 14 21 17 21 18 23 21 37 37 42 43 50 48 46 53 46 54
REMARK H PARENT 31 61 34 62 34 63 33 65
ROOT
ATOM      1  C   LEU A   3      20.051  10.087  -6.476  1.00  0.00     0.243 C 
ATOM      2  O   LEU A   3      20.161   9.162  -5.624  1.00  0.00    -0.273 OA
ATOM      3  N   ARG A   4      20.568   9.922  -7.784  1.00  0.00    -0.343 N 
ATOM      4  H   UNL     1      20.405  10.663  -8.505  1.00  0.00     0.164 HD
ENDROOT
BRANCH   1   5
ATOM      5  CA  LEU A   3      19.338  11.356  -6.146  1.00  0.00     0.171 C 
BRANCH   5   6
ATOM      6  N   LEU A   3      18.081  11.022  -5.537  1.00  0.00    -0.343 N 
ATOM      7  C   PHE A   2      16.885  11.746  -5.776  1.00  0.00     0.243 C 
ATOM      8  O   PHE A   2      16.903  12.796  -6.475  1.00  0.00    -0.273 OA
ATOM      9  H   UNL     1      18.154  10.389  -4.717  1.00  0.00     0.164 HD
BRANCH   7  10
ATOM     10  CA  PHE A   2      15.650  11.312  -5.057  1.00  0.00     0.175 C 
BRANCH  10  11
ATOM     11  N   PHE A   2      14.452  11.739  -5.768  1.00  0.00    -0.343 N 
ATOM     12  C   SER A   1      13.915  13.050  -5.636  1.00  0.00     0.239 C 
ATOM     13  O   SER A   1      14.449  13.869  -4.839  1.00  0.00    -0.273 OA
ATOM     14  H   UNL     1      13.862  11.000  -6.208  1.00  0.00     0.164 HD
BRANCH  12  15
ATOM     15  CA  SER A   1      12.655  13.410  -6.383  1.00  0.00     0.167 C 
BRANCH  15  16
ATOM     16  N   SER A   1      12.467  14.862  -6.382  1.00  0.00    -0.318 NA
ATOM     17  H   UNL     1      12.304  15.174  -5.396  1.00  0.00     0.119 HD
ATOM     18  H   UNL     1      11.581  15.087  -6.890  1.00  0.00     0.119 HD
ENDBRANCH  15  16
BRANCH  15  19
ATOM     19  CB  SER A   1      12.695  12.894  -7.842  1.00  0.00     0.184 C 
BRANCH  19  20
ATOM     20  OG  SER A   1      11.440  13.037  -8.449  1.00  0.00    -0.394 OA
ATOM     21  H   UNL     1      10.855  12.333  -8.065  1.00  0.00     0.210 HD
ENDBRANCH  19  20
ENDBRANCH  15  19
ENDBRANCH  12  15
ENDBRANCH  10  11
BRANCH  10  22
ATOM     22  CB  PHE A   2      15.609   9.773  -4.882  1.00  0.00     0.070 C 
BRANCH  22  23
ATOM     23  CG  PHE A   2      14.435   9.292  -4.092  1.00  0.00    -0.045 A 
ATOM     24  CD1 PHE A   2      13.898  10.048  -3.033  1.00  0.00     0.004 A 
ATOM     25  CD2 PHE A   2      13.964   7.990  -4.310  1.00  0.00     0.004 A 
ATOM     26  CE1 PHE A   2      12.866   9.535  -2.258  1.00  0.00     0.000 A 
ATOM     27  CE2 PHE A   2      12.937   7.476  -3.520  1.00  0.00     0.000 A 
ATOM     28  CZ  PHE A   2      12.384   8.251  -2.500  1.00  0.00     0.000 A 
ENDBRANCH  22  23
ENDBRANCH  10  22
ENDBRANCH   7  10
ENDBRANCH   5   6
BRANCH   5  29
ATOM     29  CB  LEU A   3      20.162  12.254  -5.215  1.00  0.00     0.038 C 
BRANCH  29  30
ATOM     30  CG  LEU A   3      20.414  11.680  -3.791  1.00  0.00    -0.015 C 
ATOM     31  CD1 LEU A   3      21.816  12.067  -3.315  1.00  0.00     0.007 C 
ATOM     32  CD2 LEU A   3      19.367  12.170  -2.780  1.00  0.00     0.007 C 
ENDBRANCH  29  30
ENDBRANCH   5  29
ENDBRANCH   1   5
BRANCH   3  33
ATOM     33  CA  ARG A   4      21.352   8.761  -8.149  1.00  0.00     0.171 C 
BRANCH  33  34
ATOM     34  C   ARG A   4      22.719   9.219  -8.522  1.00  0.00     0.243 C 
ATOM     35  N   ALA A   5      23.826   8.749  -7.765  1.00  0.00    -0.343 N 
ATOM     36  O   ARG A   4      22.884  10.030  -9.474  1.00  0.00    -0.273 OA
ATOM     37  H   UNL     1      23.669   8.064  -6.990  1.00  0.00     0.164 HD
BRANCH  35  38
ATOM     38  CA  ALA A   5      25.191   9.139  -8.062  1.00  0.00     0.168 C 
ATOM     39  CB  ALA A   5      25.875   9.624  -6.791  1.00  0.00     0.041 C 
BRANCH  38  40
ATOM     40  C   ALA A   5      25.899   7.978  -8.680  1.00  0.00     0.243 C 
ATOM     41  N   ASN A   6      25.910   7.872 -10.098  1.00  0.00    -0.341 N 
ATOM     42  O   ALA A   5      26.444   7.094  -7.965  1.00  0.00    -0.273 OA
ATOM     43  H   UNL     1      25.486   8.655 -10.646  1.00  0.00     0.164 HD
BRANCH  41  44
ATOM     44  CA  ASN A   6      26.539   6.756 -10.800  1.00  0.00     0.201 C 
BRANCH  44  45
ATOM     45  C   ASN A   6      27.990   6.645 -10.412  1.00  0.00     0.326 C 
ATOM     46  O   ASN A   6      28.794   7.579 -10.677  1.00  0.00    -0.250 OA
BRANCH  45  47
ATOM     47  OXT ASN A   6      28.446   5.502  -9.762  1.00  0.00    -0.480 OA
ATOM     48  H   UNL     1      29.419   5.411  -9.493  1.00  0.00     0.296 HD
ENDBRANCH  45  47
ENDBRANCH  44  45
BRANCH  44  49
ATOM     49  CB  ASN A   6      26.423   6.950 -12.320  1.00  0.00     0.136 C 
BRANCH  49  50
ATOM     50  CG  ASN A   6      25.010   7.182 -12.772  1.00  0.00     0.220 C 
ATOM     51  ND2 ASN A   6      24.754   8.090 -13.833  1.00  0.00    -0.370 N 
ATOM     52  OD1 ASN A   6      24.053   6.558 -12.243  1.00  0.00    -0.275 OA
ATOM     53  H   UNL     1      25.533   8.601 -14.305  1.00  0.00     0.159 HD
ATOM     54  H   UNL     1      23.775   8.256 -14.159  1.00  0.00     0.159 HD
ENDBRANCH  49  50
ENDBRANCH  44  49
ENDBRANCH  41  44
ENDBRANCH  38  40
ENDBRANCH  35  38
ENDBRANCH  33  34
BRANCH  33  55
ATOM     55  CB  ARG A   4      20.662   8.003  -9.286  1.00  0.00     0.037 C 
BRANCH  55  56
ATOM     56  CG  ARG A   4      21.448   6.771  -9.765  1.00  0.00     0.024 C 
BRANCH  56  57
ATOM     57  CD  ARG A   4      21.769   5.763  -8.650  1.00  0.00     0.116 C 
BRANCH  57  58
ATOM     58  NE  ARG A   4      20.571   5.392  -7.894  1.00  0.00    -0.357 N 
ATOM     59  CZ  ARG A   4      19.534   4.555  -8.426  1.00  0.00     0.185 C 
ATOM     60  NH2 ARG A   4      18.367   4.293  -7.643  1.00  0.00    -0.370 N 
ATOM     61  H   UNL     1      20.490   5.721  -6.906  1.00  0.00     0.163 HD
ATOM     62  H   UNL     1      17.601   3.684  -8.007  1.00  0.00     0.159 HD
ATOM     63  H   UNL     1      18.263   4.714  -6.693  1.00  0.00     0.159 HD
BRANCH  59  64
ATOM     64  NH1 ARG A   4      19.654   4.031  -9.606  1.00  0.00    -0.270 NA
ATOM     65  H   UNL     1      18.914   3.417 -10.012  1.00  0.00     0.191 HD
ENDBRANCH  59  64
ENDBRANCH  57  58
ENDBRANCH  56  57
ENDBRANCH  55  56
ENDBRANCH  33  55
ENDBRANCH   3  33
TORSDOF 26
