REMARK SMILES CC(C)C[C@H](NC(=O)[C@H](Cc1ccccc1)NC(=O)[C@@H](N)CO)C(=O)N[C@@H](Cc1c[nH]cn1)C(=O)N[C@@H](CCC(N)=O)C(=O)N[C@@H](CC(N)=O)C(=O)O
REMARK SMILES IDX 24 1 25 2 26 3 5 5 6 6 7 7 8 8 9 10 17 11 18 12 19 13 20 15
REMARK SMILES IDX 21 16 22 19 23 20 10 22 11 23 12 24 16 25 13 26 15 27 14 28
REMARK SMILES IDX 4 29 2 30 1 31 3 32 27 33 34 34 36 35 35 36 37 38 43 39
REMARK SMILES IDX 45 40 44 41 46 43 51 44 52 45 53 46 47 48 48 49 49 50 50 51
REMARK SMILES IDX 38 54 39 55 40 56 41 57 42 58 28 61 29 62 33 63 30 64 32 65
REMARK SMILES IDX 31 66
REMARK H PARENT 26 4 6 9 17 14 21 17 21 18 23 21 36 37 45 42 53 47 49 52 49 53
REMARK H PARENT 41 59 41 60 31 67
ROOT
ATOM      1  C   LEU A   3      20.054  10.082  -6.478  1.00  0.00     0.243 C 
ATOM      2  O   LEU A   3      20.165   9.159  -5.624  1.00  0.00    -0.273 OA
ATOM      3  N   HIS A   4      20.567   9.911  -7.787  1.00  0.00    -0.342 N 
ATOM      4  H   UNL     1      20.403  10.652  -8.508  1.00  0.00     0.164 HD
ENDROOT
BRANCH   1   5
ATOM      5  CA  LEU A   3      19.340  11.352  -6.148  1.00  0.00     0.171 C 
BRANCH   5   6
ATOM      6  N   LEU A   3      18.083  11.020  -5.539  1.00  0.00    -0.343 N 
ATOM      7  C   PHE A   2      16.886  11.745  -5.776  1.00  0.00     0.243 C 
ATOM      8  O   PHE A   2      16.905  12.796  -6.475  1.00  0.00    -0.273 OA
ATOM      9  H   UNL     1      18.155  10.385  -4.720  1.00  0.00     0.164 HD
BRANCH   7  10
ATOM     10  CA  PHE A   2      15.651  11.313  -5.057  1.00  0.00     0.175 C 
BRANCH  10  11
ATOM     11  N   PHE A   2      14.453  11.738  -5.768  1.00  0.00    -0.343 N 
ATOM     12  C   SER A   1      13.914  13.049  -5.637  1.00  0.00     0.239 C 
ATOM     13  O   SER A   1      14.447  13.869  -4.839  1.00  0.00    -0.273 OA
ATOM     14  H   UNL     1      13.865  10.998  -6.208  1.00  0.00     0.164 HD
BRANCH  12  15
ATOM     15  CA  SER A   1      12.655  13.408  -6.387  1.00  0.00     0.167 C 
BRANCH  15  16
ATOM     16  N   SER A   1      12.467  14.861  -6.384  1.00  0.00    -0.318 NA
ATOM     17  H   UNL     1      12.302  15.171  -5.398  1.00  0.00     0.119 HD
ATOM     18  H   UNL     1      11.583  15.087  -6.894  1.00  0.00     0.119 HD
ENDBRANCH  15  16
BRANCH  15  19
ATOM     19  CB  SER A   1      12.699  12.894  -7.844  1.00  0.00     0.184 C 
BRANCH  19  20
ATOM     20  OG  SER A   1      11.440  13.041  -8.440  1.00  0.00    -0.394 OA
ATOM     21  H   UNL     1      11.550  12.779  -9.392  1.00  0.00     0.210 HD
ENDBRANCH  19  20
ENDBRANCH  15  19
ENDBRANCH  12  15
ENDBRANCH  10  11
BRANCH  10  22
ATOM     22  CB  PHE A   2      15.610   9.773  -4.880  1.00  0.00     0.070 C 
BRANCH  22  23
ATOM     23  CG  PHE A   2      14.435   9.292  -4.091  1.00  0.00    -0.045 A 
ATOM     24  CD1 PHE A   2      13.898  10.048  -3.033  1.00  0.00     0.004 A 
ATOM     25  CD2 PHE A   2      13.964   7.991  -4.310  1.00  0.00     0.004 A 
ATOM     26  CE1 PHE A   2      12.866   9.535  -2.258  1.00  0.00     0.000 A 
ATOM     27  CE2 PHE A   2      12.937   7.477  -3.520  1.00  0.00     0.000 A 
ATOM     28  CZ  PHE A   2      12.384   8.251  -2.500  1.00  0.00     0.000 A 
ENDBRANCH  22  23
ENDBRANCH  10  22
ENDBRANCH   7  10
ENDBRANCH   5   6
BRANCH   5  29
ATOM     29  CB  LEU A   3      20.163  12.252  -5.217  1.00  0.00     0.038 C 
BRANCH  29  30
ATOM     30  CG  LEU A   3      20.416  11.679  -3.792  1.00  0.00    -0.015 C 
ATOM     31  CD1 LEU A   3      21.817  12.068  -3.317  1.00  0.00     0.007 C 
ATOM     32  CD2 LEU A   3      19.368  12.169  -2.781  1.00  0.00     0.007 C 
ENDBRANCH  29  30
ENDBRANCH   5  29
ENDBRANCH   1   5
BRANCH   3  33
ATOM     33  CA  HIS A   4      21.350   8.747  -8.156  1.00  0.00     0.177 C 
BRANCH  33  34
ATOM     34  C   HIS A   4      22.716   9.206  -8.530  1.00  0.00     0.243 C 
ATOM     35  N   GLN A   5      23.823   8.722  -7.785  1.00  0.00    -0.342 N 
ATOM     36  O   HIS A   4      22.880  10.029  -9.472  1.00  0.00    -0.273 OA
ATOM     37  H   UNL     1      23.668   8.011  -7.033  1.00  0.00     0.164 HD
BRANCH  35  38
ATOM     38  CA  GLN A   5      25.185   9.130  -8.071  1.00  0.00     0.171 C 
BRANCH  38  39
ATOM     39  C   GLN A   5      25.902   7.974  -8.684  1.00  0.00     0.243 C 
ATOM     40  N   ASN A   6      25.913   7.868 -10.101  1.00  0.00    -0.341 N 
ATOM     41  O   GLN A   5      26.447   7.092  -7.968  1.00  0.00    -0.273 OA
ATOM     42  H   UNL     1      25.489   8.651 -10.650  1.00  0.00     0.164 HD
BRANCH  40  43
ATOM     43  CA  ASN A   6      26.542   6.753 -10.803  1.00  0.00     0.201 C 
BRANCH  43  44
ATOM     44  C   ASN A   6      27.992   6.643 -10.414  1.00  0.00     0.326 C 
ATOM     45  O   ASN A   6      28.795   7.578 -10.676  1.00  0.00    -0.250 OA
BRANCH  44  46
ATOM     46  OXT ASN A   6      28.448   5.500  -9.764  1.00  0.00    -0.480 OA
ATOM     47  H   UNL     1      29.421   5.409  -9.495  1.00  0.00     0.296 HD
ENDBRANCH  44  46
ENDBRANCH  43  44
BRANCH  43  48
ATOM     48  CB  ASN A   6      26.427   6.950 -12.323  1.00  0.00     0.136 C 
BRANCH  48  49
ATOM     49  CG  ASN A   6      25.015   7.185 -12.775  1.00  0.00     0.220 C 
ATOM     50  ND2 ASN A   6      24.759   8.093 -13.837  1.00  0.00    -0.370 N 
ATOM     51  OD1 ASN A   6      24.058   6.566 -12.244  1.00  0.00    -0.275 OA
ATOM     52  H   UNL     1      23.780   8.260 -14.160  1.00  0.00     0.159 HD
ATOM     53  H   UNL     1      25.538   8.601 -14.310  1.00  0.00     0.159 HD
ENDBRANCH  48  49
ENDBRANCH  43  48
ENDBRANCH  40  43
ENDBRANCH  38  39
BRANCH  38  54
ATOM     54  CB  GLN A   5      25.864   9.618  -6.794  1.00  0.00     0.045 C 
BRANCH  54  55
ATOM     55  CG  GLN A   5      25.178  10.875  -6.252  1.00  0.00     0.102 C 
BRANCH  55  56
ATOM     56  CD  GLN A   5      25.832  11.305  -4.980  1.00  0.00     0.217 C 
ATOM     57  NE2 GLN A   5      25.406  10.736  -3.743  1.00  0.00    -0.370 N 
ATOM     58  OE1 GLN A   5      26.777  12.138  -5.000  1.00  0.00    -0.275 OA
ATOM     59  H   UNL     1      25.858  11.025  -2.847  1.00  0.00     0.159 HD
ATOM     60  H   UNL     1      24.646  10.020  -3.717  1.00  0.00     0.159 HD
ENDBRANCH  55  56
ENDBRANCH  54  55
ENDBRANCH  38  54
ENDBRANCH  35  38
ENDBRANCH  33  34
BRANCH  33  61
ATOM     61  CB  HIS A   4      20.664   7.997  -9.299  1.00  0.00     0.093 C 
BRANCH  61  62
ATOM     62  CG  HIS A   4      21.401   6.762  -9.747  1.00  0.00     0.061 A 
ATOM     63  ND1 HIS A   4      21.240   6.223 -10.973  1.00  0.00    -0.242 NA
ATOM     64  CD2 HIS A   4      22.120   5.887  -8.954  1.00  0.00     0.107 A 
ATOM     65  CE1 HIS A   4      21.897   5.046 -10.908  1.00  0.00     0.196 A 
ATOM     66  NE2 HIS A   4      22.442   4.820  -9.699  1.00  0.00    -0.351 N 
ATOM     67  H   UNL     1      22.978   3.977  -9.396  1.00  0.00     0.167 HD
ENDBRANCH  61  62
ENDBRANCH  33  61
ENDBRANCH   3  33
TORSDOF 26
