REMARK SMILES CC(C)C[C@H](NC(=O)[C@@H](NC(=O)[C@@H](N)CO)C(C)C)C(=O)N[C@@H](CCCCN)C(=O)N[C@@H](CCCNC(=N)N)C(=O)N[C@@H](CC(N)=O)C(=O)O
REMARK SMILES IDX 20 1 21 2 22 3 5 5 6 6 7 7 8 8 9 10 10 11 11 12 12 13 13 15
REMARK SMILES IDX 14 16 15 19 16 20 17 22 18 23 19 24 4 25 2 26 1 27 3 28
REMARK SMILES IDX 23 29 29 30 31 31 30 32 32 34 40 35 42 36 41 37 43 39 48 40
REMARK SMILES IDX 49 41 50 42 44 44 45 45 46 46 47 47 33 50 34 51 35 52 36 53
REMARK SMILES IDX 37 54 39 55 38 59 24 61 25 62 26 63 27 64 28 65
REMARK H PARENT 22 4 6 9 10 14 14 17 14 18 16 21 31 33 42 38 50 43 46 48 46 49
REMARK H PARENT 36 56 39 57 39 58 38 60 28 66 28 67
ROOT
ATOM      1  C   LEU A   3      20.043  10.086  -6.474  1.00  0.00     0.243 C 
ATOM      2  O   LEU A   3      20.157   9.161  -5.622  1.00  0.00    -0.273 OA
ATOM      3  N   LYS A   4      20.563   9.924  -7.782  1.00  0.00    -0.343 N 
ATOM      4  H   UNL     1      20.399  10.665  -8.501  1.00  0.00     0.164 HD
ENDROOT
BRANCH   1   5
ATOM      5  CA  LEU A   3      19.329  11.354  -6.138  1.00  0.00     0.171 C 
BRANCH   5   6
ATOM      6  N   LEU A   3      18.075  11.022  -5.516  1.00  0.00    -0.343 N 
ATOM      7  C   VAL A   2      16.874  11.745  -5.745  1.00  0.00     0.243 C 
ATOM      8  O   VAL A   2      16.889  12.794  -6.449  1.00  0.00    -0.273 OA
ATOM      9  H   UNL     1      18.141  10.368  -4.712  1.00  0.00     0.164 HD
BRANCH   7  10
ATOM     10  CA  VAL A   2      15.621  11.276  -5.056  1.00  0.00     0.173 C 
BRANCH  10  11
ATOM     11  N   VAL A   2      14.435  11.731  -5.769  1.00  0.00    -0.343 N 
ATOM     12  C   SER A   1      13.913  13.048  -5.637  1.00  0.00     0.239 C 
ATOM     13  O   SER A   1      14.455  13.862  -4.840  1.00  0.00    -0.273 OA
ATOM     14  H   UNL     1      13.823  11.015  -6.210  1.00  0.00     0.164 HD
BRANCH  12  15
ATOM     15  CA  SER A   1      12.655  13.416  -6.387  1.00  0.00     0.167 C 
BRANCH  15  16
ATOM     16  N   SER A   1      12.471  14.868  -6.379  1.00  0.00    -0.318 NA
ATOM     17  H   UNL     1      12.341  15.181  -5.389  1.00  0.00     0.119 HD
ATOM     18  H   UNL     1      11.567  15.095  -6.854  1.00  0.00     0.119 HD
ENDBRANCH  15  16
BRANCH  15  19
ATOM     19  CB  SER A   1      12.697  12.904  -7.846  1.00  0.00     0.184 C 
BRANCH  19  20
ATOM     20  OG  SER A   1      11.438  13.037  -8.447  1.00  0.00    -0.394 OA
ATOM     21  H   UNL     1      11.441  13.895  -8.946  1.00  0.00     0.210 HD
ENDBRANCH  19  20
ENDBRANCH  15  19
ENDBRANCH  12  15
ENDBRANCH  10  11
BRANCH  10  22
ATOM     22  CB  VAL A   2      15.585   9.721  -4.892  1.00  0.00     0.015 C 
ATOM     23  CG1 VAL A   2      14.379   9.267  -4.077  1.00  0.00     0.010 C 
ATOM     24  CG2 VAL A   2      15.664   8.945  -6.223  1.00  0.00     0.010 C 
ENDBRANCH  10  22
ENDBRANCH   7  10
ENDBRANCH   5   6
BRANCH   5  25
ATOM     25  CB  LEU A   3      20.161  12.252  -5.214  1.00  0.00     0.038 C 
BRANCH  25  26
ATOM     26  CG  LEU A   3      20.416  11.680  -3.790  1.00  0.00    -0.015 C 
ATOM     27  CD1 LEU A   3      21.819  12.068  -3.317  1.00  0.00     0.007 C 
ATOM     28  CD2 LEU A   3      19.370  12.169  -2.779  1.00  0.00     0.007 C 
ENDBRANCH  25  26
ENDBRANCH   5  25
ENDBRANCH   1   5
BRANCH   3  29
ATOM     29  CA  LYS A   4      21.347   8.761  -8.147  1.00  0.00     0.171 C 
BRANCH  29  30
ATOM     30  C   LYS A   4      22.713   9.216  -8.524  1.00  0.00     0.243 C 
ATOM     31  N   ARG A   5      23.821   8.720  -7.786  1.00  0.00    -0.343 N 
ATOM     32  O   LYS A   4      22.879  10.033  -9.470  1.00  0.00    -0.273 OA
ATOM     33  H   UNL     1      23.665   8.030  -7.017  1.00  0.00     0.164 HD
BRANCH  31  34
ATOM     34  CA  ARG A   5      25.185   9.122  -8.073  1.00  0.00     0.171 C 
BRANCH  34  35
ATOM     35  C   ARG A   5      25.899   7.967  -8.685  1.00  0.00     0.243 C 
ATOM     36  N   ASN A   6      25.912   7.864 -10.102  1.00  0.00    -0.341 N 
ATOM     37  O   ARG A   5      26.447   7.086  -7.969  1.00  0.00    -0.273 OA
ATOM     38  H   UNL     1      25.488   8.647 -10.651  1.00  0.00     0.164 HD
BRANCH  36  39
ATOM     39  CA  ASN A   6      26.541   6.750 -10.804  1.00  0.00     0.201 C 
BRANCH  39  40
ATOM     40  C   ASN A   6      27.992   6.642 -10.415  1.00  0.00     0.326 C 
ATOM     41  O   ASN A   6      28.794   7.578 -10.677  1.00  0.00    -0.250 OA
BRANCH  40  42
ATOM     42  OXT ASN A   6      28.451   5.499  -9.767  1.00  0.00    -0.480 OA
ATOM     43  H   UNL     1      29.423   5.409  -9.499  1.00  0.00     0.296 HD
ENDBRANCH  40  42
ENDBRANCH  39  40
BRANCH  39  44
ATOM     44  CB  ASN A   6      26.424   6.946 -12.323  1.00  0.00     0.136 C 
BRANCH  44  45
ATOM     45  CG  ASN A   6      25.010   7.180 -12.773  1.00  0.00     0.220 C 
ATOM     46  ND2 ASN A   6      24.754   8.090 -13.833  1.00  0.00    -0.370 N 
ATOM     47  OD1 ASN A   6      24.053   6.557 -12.244  1.00  0.00    -0.275 OA
ATOM     48  H   UNL     1      25.533   8.600 -14.305  1.00  0.00     0.159 HD
ATOM     49  H   UNL     1      23.775   8.258 -14.157  1.00  0.00     0.159 HD
ENDBRANCH  44  45
ENDBRANCH  39  44
ENDBRANCH  36  39
ENDBRANCH  34  35
BRANCH  34  50
ATOM     50  CB  ARG A   5      25.862   9.604  -6.795  1.00  0.00     0.037 C 
BRANCH  50  51
ATOM     51  CG  ARG A   5      25.165  10.859  -6.269  1.00  0.00     0.024 C 
BRANCH  51  52
ATOM     52  CD  ARG A   5      25.839  11.391  -5.013  1.00  0.00     0.116 C 
BRANCH  52  53
ATOM     53  NE  ARG A   5      25.378  10.686  -3.820  1.00  0.00    -0.357 N 
ATOM     54  CZ  ARG A   5      25.469  11.281  -2.526  1.00  0.00     0.185 C 
ATOM     55  NH2 ARG A   5      26.107  12.546  -2.351  1.00  0.00    -0.370 N 
ATOM     56  H   UNL     1      24.895   9.763  -3.912  1.00  0.00     0.163 HD
ATOM     57  H   UNL     1      26.697  12.982  -3.092  1.00  0.00     0.159 HD
ATOM     58  H   UNL     1      26.079  13.024  -1.423  1.00  0.00     0.159 HD
BRANCH  54  59
ATOM     59  NH1 ARG A   5      24.954  10.672  -1.507  1.00  0.00    -0.270 NA
ATOM     60  H   UNL     1      24.995  11.076  -0.545  1.00  0.00     0.191 HD
ENDBRANCH  54  59
ENDBRANCH  52  53
ENDBRANCH  51  52
ENDBRANCH  50  51
ENDBRANCH  34  50
ENDBRANCH  31  34
ENDBRANCH  29  30
BRANCH  29  61
ATOM     61  CB  LYS A   4      20.656   7.996  -9.278  1.00  0.00     0.035 C 
BRANCH  61  62
ATOM     62  CG  LYS A   4      21.454   6.778  -9.771  1.00  0.00     0.004 C 
BRANCH  62  63
ATOM     63  CD  LYS A   4      21.766   5.769  -8.656  1.00  0.00     0.015 C 
BRANCH  63  64
ATOM     64  CE  LYS A   4      22.375   4.490  -9.235  1.00  0.00     0.077 C 
BRANCH  64  65
ATOM     65  NZ  LYS A   4      22.708   3.560  -8.161  1.00  0.00    -0.330 NA
ATOM     66  H   UNL     1      21.816   3.199  -7.752  1.00  0.00     0.118 HD
ATOM     67  H   UNL     1      23.191   2.738  -8.591  1.00  0.00     0.118 HD
ENDBRANCH  64  65
ENDBRANCH  63  64
ENDBRANCH  62  63
ENDBRANCH  61  62
ENDBRANCH  29  61
ENDBRANCH   3  29
TORSDOF 30
