REMARK SMILES CC[C@H](C)[C@H](NC(=O)[C@H](CCC(N)=O)NC(=O)[C@H](Cc1ccccc1)NC(=O)[C@@H](N)CO)C(=O)N[C@@H](CCCNC(=N)N)C(=O)N[C@@H](CC(N)=O)C(=O)O
REMARK SMILES IDX 7 1 8 2 6 3 9 5 15 6 16 7 17 8 18 10 26 11 27 12 28 13 29 15
REMARK SMILES IDX 30 16 31 19 32 20 19 22 20 23 21 24 25 25 22 26 24 27 23 28
REMARK SMILES IDX 10 29 11 30 12 31 13 32 14 33 5 36 33 37 35 38 34 39 36 41
REMARK SMILES IDX 44 42 46 43 45 44 47 46 52 47 53 48 54 49 48 51 49 52 50 53
REMARK SMILES IDX 51 54 37 57 38 58 39 59 40 60 41 61 43 62 42 66 3 68 4 69
REMARK SMILES IDX 2 70 1 71
REMARK H PARENT 6 4 15 9 26 14 30 17 30 18 32 21 13 34 13 35 35 40 46 45 54 50
REMARK H PARENT 50 55 50 56 40 63 43 64 43 65 42 67
ROOT
ATOM      1  C   GLN A   3      20.038  10.086  -6.470  1.00  0.00     0.243 C 
ATOM      2  O   GLN A   3      20.151   9.162  -5.617  1.00  0.00    -0.273 OA
ATOM      3  N   ILE A   4      20.576   9.937  -7.773  1.00  0.00    -0.342 N 
ATOM      4  H   UNL     1      20.496  10.734  -8.445  1.00  0.00     0.164 HD
ENDROOT
BRANCH   1   5
ATOM      5  CA  GLN A   3      19.336  11.359  -6.138  1.00  0.00     0.171 C 
BRANCH   5   6
ATOM      6  N   GLN A   3      18.085  11.049  -5.497  1.00  0.00    -0.342 N 
ATOM      7  C   PHE A   2      16.884  11.750  -5.772  1.00  0.00     0.243 C 
ATOM      8  O   PHE A   2      16.900  12.792  -6.483  1.00  0.00    -0.273 OA
ATOM      9  H   UNL     1      18.158  10.509  -4.611  1.00  0.00     0.164 HD
BRANCH   7  10
ATOM     10  CA  PHE A   2      15.648  11.313  -5.060  1.00  0.00     0.175 C 
BRANCH  10  11
ATOM     11  N   PHE A   2      14.451  11.740  -5.770  1.00  0.00    -0.343 N 
ATOM     12  C   SER A   1      13.913  13.050  -5.636  1.00  0.00     0.239 C 
ATOM     13  O   SER A   1      14.448  13.869  -4.839  1.00  0.00    -0.273 OA
ATOM     14  H   UNL     1      13.862  11.000  -6.210  1.00  0.00     0.164 HD
BRANCH  12  15
ATOM     15  CA  SER A   1      12.653  13.412  -6.385  1.00  0.00     0.167 C 
BRANCH  15  16
ATOM     16  N   SER A   1      12.468  14.865  -6.382  1.00  0.00    -0.318 NA
ATOM     17  H   UNL     1      12.336  15.181  -5.393  1.00  0.00     0.119 HD
ATOM     18  H   UNL     1      11.564  15.089  -6.858  1.00  0.00     0.119 HD
ENDBRANCH  15  16
BRANCH  15  19
ATOM     19  CB  SER A   1      12.696  12.895  -7.842  1.00  0.00     0.184 C 
BRANCH  19  20
ATOM     20  OG  SER A   1      11.439  13.036  -8.447  1.00  0.00    -0.394 OA
ATOM     21  H   UNL     1      11.453  13.890  -8.953  1.00  0.00     0.210 HD
ENDBRANCH  19  20
ENDBRANCH  15  19
ENDBRANCH  12  15
ENDBRANCH  10  11
BRANCH  10  22
ATOM     22  CB  PHE A   2      15.611   9.773  -4.892  1.00  0.00     0.070 C 
BRANCH  22  23
ATOM     23  CG  PHE A   2      14.443   9.289  -4.090  1.00  0.00    -0.045 A 
ATOM     24  CD1 PHE A   2      13.903  10.046  -3.033  1.00  0.00     0.004 A 
ATOM     25  CD2 PHE A   2      13.968   7.989  -4.310  1.00  0.00     0.004 A 
ATOM     26  CE1 PHE A   2      12.868   9.535  -2.260  1.00  0.00     0.000 A 
ATOM     27  CE2 PHE A   2      12.939   7.477  -3.521  1.00  0.00     0.000 A 
ATOM     28  CZ  PHE A   2      12.386   8.252  -2.501  1.00  0.00     0.000 A 
ENDBRANCH  22  23
ENDBRANCH  10  22
ENDBRANCH   7  10
ENDBRANCH   5   6
BRANCH   5  29
ATOM     29  CB  GLN A   3      20.189  12.255  -5.236  1.00  0.00     0.045 C 
BRANCH  29  30
ATOM     30  CG  GLN A   3      20.402  11.719  -3.804  1.00  0.00     0.102 C 
BRANCH  30  31
ATOM     31  CD  GLN A   3      21.775  12.051  -3.319  1.00  0.00     0.217 C 
ATOM     32  NE2 GLN A   3      22.157  13.404  -3.070  1.00  0.00    -0.370 N 
ATOM     33  OE1 GLN A   3      22.601  11.122  -3.135  1.00  0.00    -0.275 OA
ATOM     34  H   UNL     1      23.122  13.626  -2.741  1.00  0.00     0.159 HD
ATOM     35  H   UNL     1      21.478  14.183  -3.217  1.00  0.00     0.159 HD
ENDBRANCH  30  31
ENDBRANCH  29  30
ENDBRANCH   5  29
ENDBRANCH   1   5
BRANCH   3  36
ATOM     36  CA  ILE A   4      21.344   8.771  -8.164  1.00  0.00     0.174 C 
BRANCH  36  37
ATOM     37  C   ILE A   4      22.717   9.217  -8.533  1.00  0.00     0.243 C 
ATOM     38  N   ARG A   5      23.820   8.719  -7.788  1.00  0.00    -0.343 N 
ATOM     39  O   ILE A   4      22.893  10.046  -9.466  1.00  0.00    -0.273 OA
ATOM     40  H   UNL     1      23.660   8.029  -7.019  1.00  0.00     0.164 HD
BRANCH  38  41
ATOM     41  CA  ARG A   5      25.186   9.120  -8.071  1.00  0.00     0.171 C 
BRANCH  41  42
ATOM     42  C   ARG A   5      25.900   7.967  -8.685  1.00  0.00     0.243 C 
ATOM     43  N   ASN A   6      25.913   7.864 -10.102  1.00  0.00    -0.341 N 
ATOM     44  O   ARG A   5      26.448   7.086  -7.969  1.00  0.00    -0.273 OA
ATOM     45  H   UNL     1      25.488   8.647 -10.650  1.00  0.00     0.164 HD
BRANCH  43  46
ATOM     46  CA  ASN A   6      26.542   6.751 -10.804  1.00  0.00     0.201 C 
BRANCH  46  47
ATOM     47  C   ASN A   6      27.993   6.642 -10.416  1.00  0.00     0.326 C 
ATOM     48  O   ASN A   6      28.794   7.579 -10.677  1.00  0.00    -0.250 OA
BRANCH  47  49
ATOM     49  OXT ASN A   6      28.451   5.499  -9.768  1.00  0.00    -0.480 OA
ATOM     50  H   UNL     1      29.424   5.409  -9.500  1.00  0.00     0.296 HD
ENDBRANCH  47  49
ENDBRANCH  46  47
BRANCH  46  51
ATOM     51  CB  ASN A   6      26.424   6.947 -12.323  1.00  0.00     0.136 C 
BRANCH  51  52
ATOM     52  CG  ASN A   6      25.010   7.181 -12.773  1.00  0.00     0.220 C 
ATOM     53  ND2 ASN A   6      24.753   8.091 -13.833  1.00  0.00    -0.370 N 
ATOM     54  OD1 ASN A   6      24.053   6.558 -12.243  1.00  0.00    -0.275 OA
ATOM     55  H   UNL     1      23.775   8.259 -14.156  1.00  0.00     0.159 HD
ATOM     56  H   UNL     1      25.533   8.600 -14.306  1.00  0.00     0.159 HD
ENDBRANCH  51  52
ENDBRANCH  46  51
ENDBRANCH  43  46
ENDBRANCH  41  42
BRANCH  41  57
ATOM     57  CB  ARG A   5      25.861   9.603  -6.793  1.00  0.00     0.037 C 
BRANCH  57  58
ATOM     58  CG  ARG A   5      25.162  10.856  -6.265  1.00  0.00     0.024 C 
BRANCH  58  59
ATOM     59  CD  ARG A   5      25.842  11.393  -5.014  1.00  0.00     0.116 C 
BRANCH  59  60
ATOM     60  NE  ARG A   5      25.401  10.681  -3.817  1.00  0.00    -0.357 N 
ATOM     61  CZ  ARG A   5      25.488  11.279  -2.524  1.00  0.00     0.185 C 
ATOM     62  NH2 ARG A   5      26.110  12.552  -2.352  1.00  0.00    -0.370 N 
ATOM     63  H   UNL     1      24.949   9.742  -3.905  1.00  0.00     0.163 HD
ATOM     64  H   UNL     1      26.695  12.992  -3.095  1.00  0.00     0.159 HD
ATOM     65  H   UNL     1      26.073  13.034  -1.427  1.00  0.00     0.159 HD
BRANCH  61  66
ATOM     66  NH1 ARG A   5      24.977  10.668  -1.502  1.00  0.00    -0.270 NA
ATOM     67  H   UNL     1      25.012  11.076  -0.542  1.00  0.00     0.191 HD
ENDBRANCH  61  66
ENDBRANCH  59  60
ENDBRANCH  58  59
ENDBRANCH  57  58
ENDBRANCH  41  57
ENDBRANCH  38  41
ENDBRANCH  36  37
BRANCH  36  68
ATOM     68  CB  ILE A   4      20.628   7.975  -9.282  1.00  0.00     0.018 C 
ATOM     69  CG1 ILE A   4      20.216   8.830 -10.497  1.00  0.00     0.010 C 
BRANCH  68  70
ATOM     70  CG2 ILE A   4      21.454   6.763  -9.762  1.00  0.00     0.002 C 
ATOM     71  CD1 ILE A   4      21.771   5.774  -8.641  1.00  0.00     0.004 C 
ENDBRANCH  68  70
ENDBRANCH  36  68
ENDBRANCH   3  36
TORSDOF 29
