REMARK SMILES CC(C)C[C@H](NC(=O)CNC(=O)[C@@H](N)CO)C(=O)N[C@@H](Cc1c[nH]cn1)C(=O)N[C@@H](CCCNC(=N)N)C(=O)N[C@@H](CC(N)=O)C(=O)O
REMARK SMILES IDX 17 1 18 2 19 3 5 5 6 6 7 7 8 8 9 10 10 11 11 12 12 13 13 15
REMARK SMILES IDX 14 16 15 19 16 20 4 22 2 23 1 24 3 25 20 26 27 27 29 28
REMARK SMILES IDX 28 29 30 31 38 32 40 33 39 34 41 36 46 37 47 38 48 39 42 41
REMARK SMILES IDX 43 42 44 43 45 44 31 47 32 48 33 49 34 50 35 51 37 52 36 56
REMARK SMILES IDX 21 58 22 59 26 60 23 61 25 62 24 63
REMARK H PARENT 19 4 6 9 10 14 14 17 14 18 16 21 29 30 40 35 48 40 44 45 44 46
REMARK H PARENT 34 53 37 54 37 55 36 57 24 64
ROOT
ATOM      1  C   LEU A   3       1.583  -0.996  -0.850  1.00  0.00     0.243 C 
ATOM      2  O   LEU A   3       1.440  -2.223  -1.106  1.00  0.00    -0.273 OA
ATOM      3  N   HIS A   4       0.637  -0.312  -0.015  1.00  0.00    -0.342 N 
ATOM      4  H   UNL     1       0.809   0.694   0.209  1.00  0.00     0.164 HD
ENDROOT
BRANCH   1   5
ATOM      5  CA  LEU A   3       2.715  -0.226  -1.480  1.00  0.00     0.171 C 
BRANCH   5   6
ATOM      6  N   LEU A   3       3.931  -1.047  -1.485  1.00  0.00    -0.343 N 
ATOM      7  C   GLY A   2       4.759  -1.186  -0.323  1.00  0.00     0.240 C 
ATOM      8  O   GLY A   2       4.330  -0.830   0.809  1.00  0.00    -0.273 OA
ATOM      9  H   UNL     1       4.226  -1.530  -2.364  1.00  0.00     0.164 HD
BRANCH   7  10
ATOM     10  CA  GLY A   2       6.127  -1.793  -0.448  1.00  0.00     0.216 C 
BRANCH  10  11
ATOM     11  N   GLY A   2       7.053  -1.232   0.537  1.00  0.00    -0.346 N 
ATOM     12  C   SER A   1       7.402   0.164   0.562  1.00  0.00     0.239 C 
ATOM     13  O   SER A   1       6.897   0.953  -0.286  1.00  0.00    -0.273 OA
ATOM     14  H   UNL     1       7.505  -1.894   1.206  1.00  0.00     0.164 HD
BRANCH  12  15
ATOM     15  CA  SER A   1       8.413   0.707   1.549  1.00  0.00     0.167 C 
BRANCH  15  16
ATOM     16  N   SER A   1       8.268   0.104   2.877  1.00  0.00    -0.318 NA
ATOM     17  H   UNL     1       8.618  -0.880   2.865  1.00  0.00     0.119 HD
ATOM     18  H   UNL     1       7.253   0.083   3.145  1.00  0.00     0.119 HD
ENDBRANCH  15  16
BRANCH  15  19
ATOM     19  CB  SER A   1       9.844   0.509   1.022  1.00  0.00     0.184 C 
BRANCH  19  20
ATOM     20  OG  SER A   1      10.041   1.244  -0.158  1.00  0.00    -0.394 OA
ATOM     21  H   UNL     1      10.132   2.198   0.113  1.00  0.00     0.210 HD
ENDBRANCH  19  20
ENDBRANCH  15  19
ENDBRANCH  12  15
ENDBRANCH  10  11
ENDBRANCH   7  10
ENDBRANCH   5   6
BRANCH   5  22
ATOM     22  CB  LEU A   3       2.321   0.202  -2.914  1.00  0.00     0.038 C 
BRANCH  22  23
ATOM     23  CG  LEU A   3       3.104   1.434  -3.433  1.00  0.00    -0.015 C 
ATOM     24  CD1 LEU A   3       2.509   1.909  -4.764  1.00  0.00     0.007 C 
ATOM     25  CD2 LEU A   3       4.603   1.146  -3.603  1.00  0.00     0.007 C 
ENDBRANCH  22  23
ENDBRANCH   5  22
ENDBRANCH   1   5
BRANCH   3  26
ATOM     26  CA  HIS A   4      -0.507  -0.972   0.630  1.00  0.00     0.177 C 
BRANCH  26  27
ATOM     27  C   HIS A   4      -1.790  -0.254   0.287  1.00  0.00     0.243 C 
ATOM     28  N   ARG A   5      -3.050  -0.790   0.712  1.00  0.00    -0.343 N 
ATOM     29  O   HIS A   4      -1.757   0.822  -0.375  1.00  0.00    -0.273 OA
ATOM     30  H   UNL     1      -3.047  -1.696   1.229  1.00  0.00     0.164 HD
BRANCH  28  31
ATOM     31  CA  ARG A   5      -4.328  -0.137   0.397  1.00  0.00     0.171 C 
BRANCH  31  32
ATOM     32  C   ARG A   5      -4.382   1.225   1.036  1.00  0.00     0.243 C 
ATOM     33  N   ASN A   6      -4.854   2.356   0.287  1.00  0.00    -0.341 N 
ATOM     34  O   ARG A   5      -4.037   1.360   2.243  1.00  0.00    -0.273 OA
ATOM     35  H   UNL     1      -5.157   2.208  -0.704  1.00  0.00     0.164 HD
BRANCH  33  36
ATOM     36  CA  ASN A   6      -4.902   3.703   0.863  1.00  0.00     0.201 C 
BRANCH  36  37
ATOM     37  C   ASN A   6      -6.054   3.798   1.822  1.00  0.00     0.326 C 
ATOM     38  O   ASN A   6      -7.208   3.437   1.468  1.00  0.00    -0.250 OA
BRANCH  37  39
ATOM     39  OXT ASN A   6      -5.847   4.310   3.100  1.00  0.00    -0.480 OA
ATOM     40  H   UNL     1      -6.612   4.389   3.759  1.00  0.00     0.296 HD
ENDBRANCH  37  39
ENDBRANCH  36  37
BRANCH  36  41
ATOM     41  CB  ASN A   6      -5.026   4.759  -0.253  1.00  0.00     0.136 C 
BRANCH  41  42
ATOM     42  CG  ASN A   6      -4.884   6.153   0.289  1.00  0.00     0.220 C 
ATOM     43  ND2 ASN A   6      -3.593   6.686   0.582  1.00  0.00    -0.370 N 
ATOM     44  OD1 ASN A   6      -5.911   6.847   0.513  1.00  0.00    -0.275 OA
ATOM     45  H   UNL     1      -2.731   6.124   0.405  1.00  0.00     0.159 HD
ATOM     46  H   UNL     1      -3.494   7.653   0.965  1.00  0.00     0.159 HD
ENDBRANCH  41  42
ENDBRANCH  36  41
ENDBRANCH  33  36
ENDBRANCH  31  32
BRANCH  31  47
ATOM     47  CB  ARG A   5      -5.526  -0.975   0.887  1.00  0.00     0.037 C 
BRANCH  47  48
ATOM     48  CG  ARG A   5      -5.686  -2.283   0.093  1.00  0.00     0.024 C 
BRANCH  48  49
ATOM     49  CD  ARG A   5      -6.911  -3.065   0.579  1.00  0.00     0.116 C 
BRANCH  49  50
ATOM     50  NE  ARG A   5      -7.007  -4.357  -0.101  1.00  0.00    -0.357 N 
ATOM     51  CZ  ARG A   5      -7.476  -4.501  -1.451  1.00  0.00     0.185 C 
ATOM     52  NH2 ARG A   5      -7.618  -5.810  -2.010  1.00  0.00    -0.370 N 
ATOM     53  H   UNL     1      -6.815  -5.220   0.456  1.00  0.00     0.163 HD
ATOM     54  H   UNL     1      -7.366  -6.653  -1.453  1.00  0.00     0.159 HD
ATOM     55  H   UNL     1      -7.947  -5.938  -2.995  1.00  0.00     0.159 HD
BRANCH  51  56
ATOM     56  NH1 ARG A   5      -7.770  -3.456  -2.161  1.00  0.00    -0.270 NA
ATOM     57  H   UNL     1      -8.116  -3.537  -3.144  1.00  0.00     0.191 HD
ENDBRANCH  51  56
ENDBRANCH  49  50
ENDBRANCH  48  49
ENDBRANCH  47  48
ENDBRANCH  31  47
ENDBRANCH  28  31
ENDBRANCH  26  27
BRANCH  26  58
ATOM     58  CB  HIS A   4      -0.294  -0.998   2.154  1.00  0.00     0.093 C 
BRANCH  58  59
ATOM     59  CG  HIS A   4       0.900  -1.828   2.516  1.00  0.00     0.061 A 
ATOM     60  ND1 HIS A   4       0.990  -3.156   2.295  1.00  0.00    -0.242 NA
ATOM     61  CD2 HIS A   4       2.062  -1.371   3.091  1.00  0.00     0.107 A 
ATOM     62  CE1 HIS A   4       2.217  -3.479   2.751  1.00  0.00     0.196 A 
ATOM     63  NE2 HIS A   4       2.887  -2.418   3.238  1.00  0.00    -0.351 N 
ATOM     64  H   UNL     1       3.848  -2.410   3.642  1.00  0.00     0.167 HD
ENDBRANCH  58  59
ENDBRANCH  26  58
ENDBRANCH   3  26
TORSDOF 26
