REMARK SMILES CC(C)C[C@H](NC(=O)[C@H](Cc1c[nH]cn1)NC(=O)[C@H](Cc1ccccc1)NC(=O)[C@@H](N)CO)C(=O)N[C@@H](CCCNC(=N)N)C(=O)N[C@@H](CCCCN)C(=O)O
REMARK SMILES IDX 34 1 35 2 36 3 5 5 6 6 7 7 8 8 9 10 16 11 17 12 18 13 19 15
REMARK SMILES IDX 27 16 28 17 29 18 30 20 31 21 32 24 33 25 20 27 21 28 22 29
REMARK SMILES IDX 26 30 23 31 25 32 24 33 10 34 11 35 15 36 12 37 14 38 13 39
REMARK SMILES IDX 4 41 2 42 1 43 3 44 37 45 45 46 47 47 46 48 48 50 54 51
REMARK SMILES IDX 55 52 56 53 49 55 50 56 51 57 52 58 53 59 38 62 39 63 40 64
REMARK SMILES IDX 41 65 42 66 44 67 43 71
REMARK H PARENT 36 4 6 9 16 14 27 19 31 22 31 23 33 26 13 40 47 49 56 54 53 60
REMARK H PARENT 53 61 41 68 44 69 44 70 43 72
ROOT
ATOM      1  C   LEU A   4      -1.866  -0.809  -1.150  1.00  0.00     0.243 C 
ATOM      2  O   LEU A   4      -2.308   0.242  -0.606  1.00  0.00    -0.273 OA
ATOM      3  N   ARG A   5      -2.791  -1.789  -1.647  1.00  0.00    -0.343 N 
ATOM      4  H   UNL     1      -2.416  -2.616  -2.163  1.00  0.00     0.164 HD
ENDROOT
BRANCH   1   5
ATOM      5  CA  LEU A   4      -0.374  -1.004  -1.321  1.00  0.00     0.171 C 
BRANCH   5   6
ATOM      6  N   LEU A   4       0.367   0.139  -0.773  1.00  0.00    -0.342 N 
ATOM      7  C   HIS A   3       1.490   0.737  -1.433  1.00  0.00     0.243 C 
ATOM      8  O   HIS A   3       1.924   0.247  -2.509  1.00  0.00    -0.273 OA
ATOM      9  H   UNL     1       0.114   0.490   0.176  1.00  0.00     0.164 HD
BRANCH   7  10
ATOM     10  CA  HIS A   3       2.170   1.933  -0.813  1.00  0.00     0.177 C 
BRANCH  10  11
ATOM     11  N   HIS A   3       3.362   1.513  -0.063  1.00  0.00    -0.342 N 
ATOM     12  C   PHE A   2       4.520   0.886  -0.653  1.00  0.00     0.243 C 
ATOM     13  O   PHE A   2       4.680   0.907  -1.905  1.00  0.00    -0.273 OA
ATOM     14  H   UNL     1       3.297   1.570   0.976  1.00  0.00     0.164 HD
BRANCH  12  15
ATOM     15  CA  PHE A   2       5.471   0.073   0.197  1.00  0.00     0.175 C 
BRANCH  15  16
ATOM     16  N   PHE A   2       6.594  -0.416  -0.616  1.00  0.00    -0.343 N 
ATOM     17  C   SER A   1       6.843  -1.812  -0.856  1.00  0.00     0.239 C 
ATOM     18  O   SER A   1       6.021  -2.683  -0.457  1.00  0.00    -0.273 OA
ATOM     19  H   UNL     1       7.233   0.290  -1.054  1.00  0.00     0.164 HD
BRANCH  17  20
ATOM     20  CA  SER A   1       8.099  -2.253  -1.562  1.00  0.00     0.167 C 
BRANCH  20  21
ATOM     21  N   SER A   1       8.150  -1.667  -2.905  1.00  0.00    -0.318 NA
ATOM     22  H   UNL     1       8.405  -0.656  -2.835  1.00  0.00     0.119 HD
ATOM     23  H   UNL     1       8.913  -2.142  -3.444  1.00  0.00     0.119 HD
ENDBRANCH  20  21
BRANCH  20  24
ATOM     24  CB  SER A   1       9.362  -1.892  -0.754  1.00  0.00     0.184 C 
BRANCH  24  25
ATOM     25  OG  SER A   1       9.375  -2.570   0.474  1.00  0.00    -0.394 OA
ATOM     26  H   UNL     1       8.812  -2.048   1.102  1.00  0.00     0.210 HD
ENDBRANCH  24  25
ENDBRANCH  20  24
ENDBRANCH  17  20
ENDBRANCH  15  16
BRANCH  15  27
ATOM     27  CB  PHE A   2       6.001   0.828   1.437  1.00  0.00     0.070 C 
BRANCH  27  28
ATOM     28  CG  PHE A   2       6.754   2.099   1.122  1.00  0.00    -0.045 A 
ATOM     29  CD1 PHE A   2       6.094   3.340   1.141  1.00  0.00     0.004 A 
ATOM     30  CD2 PHE A   2       8.131   2.056   0.838  1.00  0.00     0.004 A 
ATOM     31  CE1 PHE A   2       6.804   4.517   0.892  1.00  0.00     0.000 A 
ATOM     32  CE2 PHE A   2       8.832   3.238   0.581  1.00  0.00     0.000 A 
ATOM     33  CZ  PHE A   2       8.169   4.465   0.599  1.00  0.00     0.000 A 
ENDBRANCH  27  28
ENDBRANCH  15  27
ENDBRANCH  12  15
ENDBRANCH  10  11
BRANCH  10  34
ATOM     34  CB  HIS A   3       2.469   3.025  -1.860  1.00  0.00     0.093 C 
BRANCH  34  35
ATOM     35  CG  HIS A   3       3.097   4.244  -1.252  1.00  0.00     0.061 A 
ATOM     36  ND1 HIS A   3       4.176   4.857  -1.774  1.00  0.00    -0.242 NA
ATOM     37  CD2 HIS A   3       2.606   4.987  -0.202  1.00  0.00     0.107 A 
ATOM     38  CE1 HIS A   3       4.331   5.955  -1.007  1.00  0.00     0.196 A 
ATOM     39  NE2 HIS A   3       3.394   6.059  -0.048  1.00  0.00    -0.351 N 
ATOM     40  H   UNL     1       3.294   6.820   0.659  1.00  0.00     0.167 HD
ENDBRANCH  34  35
ENDBRANCH  10  34
ENDBRANCH   7  10
ENDBRANCH   5   6
BRANCH   5  41
ATOM     41  CB  LEU A   4       0.149  -2.333  -0.717  1.00  0.00     0.038 C 
BRANCH  41  42
ATOM     42  CG  LEU A   4       0.257  -2.386   0.832  1.00  0.00    -0.015 C 
ATOM     43  CD1 LEU A   4       1.044  -3.635   1.254  1.00  0.00     0.007 C 
ATOM     44  CD2 LEU A   4      -1.120  -2.391   1.517  1.00  0.00     0.007 C 
ENDBRANCH  41  42
ENDBRANCH   5  41
ENDBRANCH   1   5
BRANCH   3  45
ATOM     45  CA  ARG A   5      -4.244  -1.630  -1.499  1.00  0.00     0.171 C 
BRANCH  45  46
ATOM     46  C   ARG A   5      -4.604  -1.722  -0.039  1.00  0.00     0.243 C 
ATOM     47  N   LYS A   6      -4.996  -0.541   0.677  1.00  0.00    -0.341 N 
ATOM     48  O   ARG A   5      -4.509  -2.826   0.562  1.00  0.00    -0.273 OA
ATOM     49  H   UNL     1      -5.097   0.347   0.138  1.00  0.00     0.164 HD
BRANCH  47  50
ATOM     50  CA  LYS A   6      -5.280  -0.554   2.116  1.00  0.00     0.192 C 
BRANCH  50  51
ATOM     51  C   LYS A   6      -6.681  -1.031   2.373  1.00  0.00     0.326 C 
ATOM     52  O   LYS A   6      -7.609  -0.752   1.566  1.00  0.00    -0.250 OA
BRANCH  51  53
ATOM     53  OXT LYS A   6      -6.965  -1.744   3.533  1.00  0.00    -0.480 OA
ATOM     54  H   UNL     1      -7.907  -2.062   3.729  1.00  0.00     0.296 HD
ENDBRANCH  51  53
ENDBRANCH  50  51
BRANCH  50  55
ATOM     55  CB  LYS A   6      -5.013   0.824   2.759  1.00  0.00     0.037 C 
BRANCH  55  56
ATOM     56  CG  LYS A   6      -6.031   1.916   2.380  1.00  0.00     0.004 C 
BRANCH  56  57
ATOM     57  CD  LYS A   6      -5.625   3.266   2.983  1.00  0.00     0.015 C 
BRANCH  57  58
ATOM     58  CE  LYS A   6      -6.658   4.362   2.690  1.00  0.00     0.077 C 
BRANCH  58  59
ATOM     59  NZ  LYS A   6      -6.741   4.635   1.258  1.00  0.00    -0.330 NA
ATOM     60  H   UNL     1      -7.512   5.326   1.114  1.00  0.00     0.118 HD
ATOM     61  H   UNL     1      -5.851   5.100   0.965  1.00  0.00     0.118 HD
ENDBRANCH  58  59
ENDBRANCH  57  58
ENDBRANCH  56  57
ENDBRANCH  55  56
ENDBRANCH  50  55
ENDBRANCH  47  50
ENDBRANCH  45  46
BRANCH  45  62
ATOM     62  CB  ARG A   5      -4.995  -2.682  -2.351  1.00  0.00     0.037 C 
BRANCH  62  63
ATOM     63  CG  ARG A   5      -6.504  -2.389  -2.519  1.00  0.00     0.024 C 
BRANCH  63  64
ATOM     64  CD  ARG A   5      -7.384  -2.955  -1.392  1.00  0.00     0.116 C 
BRANCH  64  65
ATOM     65  NE  ARG A   5      -7.309  -4.417  -1.338  1.00  0.00    -0.357 N 
ATOM     66  CZ  ARG A   5      -7.936  -5.310  -2.279  1.00  0.00     0.185 C 
ATOM     67  NH2 ARG A   5      -7.686  -6.712  -2.180  1.00  0.00    -0.370 N 
ATOM     68  H   UNL     1      -6.763  -4.836  -0.553  1.00  0.00     0.163 HD
ATOM     69  H   UNL     1      -8.145  -7.383  -2.836  1.00  0.00     0.159 HD
ATOM     70  H   UNL     1      -7.020  -7.080  -1.464  1.00  0.00     0.159 HD
BRANCH  66  71
ATOM     71  NH1 ARG A   5      -8.749  -4.880  -3.194  1.00  0.00    -0.270 NA
ATOM     72  H   UNL     1      -8.993  -3.875  -3.328  1.00  0.00     0.191 HD
ENDBRANCH  66  71
ENDBRANCH  64  65
ENDBRANCH  63  64
ENDBRANCH  62  63
ENDBRANCH  45  62
ENDBRANCH   3  45
TORSDOF 31
