REMARK SMILES CC(C)C[C@H](NC(=O)[C@H](CCCNC(=N)N)NC(=O)[C@H](Cc1ccccc1)NC(=O)[C@H](C)N)C(=O)N[C@@H](CCCNC(=N)N)C(=O)N[C@@H](CC(N)=O)C(=O)O
REMARK SMILES IDX 5 1 6 2 7 3 8 4 9 6 17 7 18 8 19 9 20 11 28 12 29 13 30 14
REMARK SMILES IDX 31 16 32 17 33 18 21 21 22 22 23 23 27 24 24 25 26 26 25 27
REMARK SMILES IDX 10 28 11 29 12 30 13 31 14 32 16 33 15 37 34 39 36 40 35 41
REMARK SMILES IDX 37 43 45 44 47 45 46 46 48 48 53 49 54 50 55 51 49 53 50 54
REMARK SMILES IDX 51 55 52 56 38 59 39 60 40 61 41 62 42 63 44 64 43 68 4 70
REMARK SMILES IDX 2 71 1 72 3 73
REMARK H PARENT 6 5 17 10 28 15 33 19 33 20 13 34 16 35 16 36 15 38 36 42
REMARK H PARENT 47 47 55 52 51 57 51 58 41 65 44 66 44 67 43 69
ROOT
ATOM      1  CA  LEU A   4      21.349   8.759  -8.142  1.00  0.00     0.171 C 
ENDROOT
BRANCH   1   2
ATOM      2  N   LEU A   4      20.565   9.921  -7.777  1.00  0.00    -0.343 N 
ATOM      3  C   ARG A   3      20.038  10.084  -6.471  1.00  0.00     0.243 C 
ATOM      4  O   ARG A   3      20.153   9.164  -5.613  1.00  0.00    -0.273 OA
ATOM      5  H   UNL     1      20.404  10.662  -8.497  1.00  0.00     0.164 HD
BRANCH   3   6
ATOM      6  CA  ARG A   3      19.338  11.358  -6.141  1.00  0.00     0.171 C 
BRANCH   6   7
ATOM      7  N   ARG A   3      18.087  11.049  -5.498  1.00  0.00    -0.343 N 
ATOM      8  C   PHE A   2      16.887  11.752  -5.773  1.00  0.00     0.243 C 
ATOM      9  O   PHE A   2      16.906  12.795  -6.484  1.00  0.00    -0.273 OA
ATOM     10  H   UNL     1      18.158  10.507  -4.612  1.00  0.00     0.164 HD
BRANCH   8  11
ATOM     11  CA  PHE A   2      15.647  11.317  -5.069  1.00  0.00     0.175 C 
BRANCH  11  12
ATOM     12  N   PHE A   2      14.463  11.751  -5.796  1.00  0.00    -0.343 N 
ATOM     13  C   ALA A   1      13.905  13.050  -5.630  1.00  0.00     0.237 C 
ATOM     14  O   ALA A   1      14.431  13.861  -4.818  1.00  0.00    -0.273 OA
ATOM     15  H   UNL     1      14.007  11.069  -6.441  1.00  0.00     0.164 HD
BRANCH  13  16
ATOM     16  CA  ALA A   1      12.656  13.424  -6.383  1.00  0.00     0.138 C 
ATOM     17  CB  ALA A   1      12.676  12.886  -7.826  1.00  0.00     0.035 C 
BRANCH  16  18
ATOM     18  N   ALA A   1      12.490  14.877  -6.384  1.00  0.00    -0.320 NA
ATOM     19  H   UNL     1      13.214  15.309  -7.004  1.00  0.00     0.119 HD
ATOM     20  H   UNL     1      11.552  15.110  -6.785  1.00  0.00     0.119 HD
ENDBRANCH  16  18
ENDBRANCH  13  16
ENDBRANCH  11  12
BRANCH  11  21
ATOM     21  CB  PHE A   2      15.603   9.778  -4.902  1.00  0.00     0.070 C 
BRANCH  21  22
ATOM     22  CG  PHE A   2      14.438   9.293  -4.096  1.00  0.00    -0.045 A 
ATOM     23  CD1 PHE A   2      13.901  10.049  -3.036  1.00  0.00     0.004 A 
ATOM     24  CD2 PHE A   2      13.966   7.991  -4.312  1.00  0.00     0.004 A 
ATOM     25  CE1 PHE A   2      12.870   9.537  -2.260  1.00  0.00     0.000 A 
ATOM     26  CE2 PHE A   2      12.940   7.477  -3.520  1.00  0.00     0.000 A 
ATOM     27  CZ  PHE A   2      12.388   8.253  -2.501  1.00  0.00     0.000 A 
ENDBRANCH  21  22
ENDBRANCH  11  21
ENDBRANCH   8  11
ENDBRANCH   6   7
BRANCH   6  28
ATOM     28  CB  ARG A   3      20.192  12.253  -5.239  1.00  0.00     0.037 C 
BRANCH  28  29
ATOM     29  CG  ARG A   3      20.408  11.711  -3.809  1.00  0.00     0.024 C 
BRANCH  29  30
ATOM     30  CD  ARG A   3      21.803  12.062  -3.296  1.00  0.00     0.116 C 
BRANCH  30  31
ATOM     31  NE  ARG A   3      21.940  11.667  -1.893  1.00  0.00    -0.357 N 
ATOM     32  CZ  ARG A   3      21.921  10.307  -1.421  1.00  0.00     0.185 C 
ATOM     33  NH2 ARG A   3      21.744  10.054  -0.028  1.00  0.00    -0.370 N 
ATOM     34  H   UNL     1      22.004  12.431  -1.182  1.00  0.00     0.163 HD
ATOM     35  H   UNL     1      21.607  10.843   0.642  1.00  0.00     0.159 HD
ATOM     36  H   UNL     1      21.746   9.076   0.339  1.00  0.00     0.159 HD
BRANCH  32  37
ATOM     37  NH1 ARG A   3      22.105   9.305  -2.224  1.00  0.00    -0.270 NA
ATOM     38  H   UNL     1      22.272   9.409  -3.248  1.00  0.00     0.191 HD
ENDBRANCH  32  37
ENDBRANCH  30  31
ENDBRANCH  29  30
ENDBRANCH  28  29
ENDBRANCH   6  28
ENDBRANCH   3   6
ENDBRANCH   1   2
BRANCH   1  39
ATOM     39  C   LEU A   4      22.714   9.215  -8.522  1.00  0.00     0.243 C 
ATOM     40  N   ARG A   5      23.822   8.720  -7.785  1.00  0.00    -0.343 N 
ATOM     41  O   LEU A   4      22.878  10.032  -9.469  1.00  0.00    -0.273 OA
ATOM     42  H   UNL     1      23.667   8.031  -7.015  1.00  0.00     0.164 HD
BRANCH  40  43
ATOM     43  CA  ARG A   5      25.186   9.122  -8.072  1.00  0.00     0.171 C 
BRANCH  43  44
ATOM     44  C   ARG A   5      25.900   7.968  -8.685  1.00  0.00     0.243 C 
ATOM     45  N   ASN A   6      25.913   7.864 -10.102  1.00  0.00    -0.341 N 
ATOM     46  O   ARG A   5      26.447   7.087  -7.969  1.00  0.00    -0.273 OA
ATOM     47  H   UNL     1      25.488   8.647 -10.651  1.00  0.00     0.164 HD
BRANCH  45  48
ATOM     48  CA  ASN A   6      26.542   6.751 -10.804  1.00  0.00     0.201 C 
BRANCH  48  49
ATOM     49  C   ASN A   6      27.993   6.642 -10.416  1.00  0.00     0.326 C 
ATOM     50  O   ASN A   6      28.794   7.579 -10.677  1.00  0.00    -0.250 OA
BRANCH  49  51
ATOM     51  OXT ASN A   6      28.451   5.499  -9.768  1.00  0.00    -0.480 OA
ATOM     52  H   UNL     1      29.424   5.409  -9.500  1.00  0.00     0.296 HD
ENDBRANCH  49  51
ENDBRANCH  48  49
BRANCH  48  53
ATOM     53  CB  ASN A   6      26.424   6.947 -12.323  1.00  0.00     0.136 C 
BRANCH  53  54
ATOM     54  CG  ASN A   6      25.010   7.181 -12.773  1.00  0.00     0.220 C 
ATOM     55  ND2 ASN A   6      24.753   8.090 -13.833  1.00  0.00    -0.370 N 
ATOM     56  OD1 ASN A   6      24.053   6.558 -12.243  1.00  0.00    -0.275 OA
ATOM     57  H   UNL     1      23.775   8.258 -14.156  1.00  0.00     0.159 HD
ATOM     58  H   UNL     1      25.533   8.600 -14.306  1.00  0.00     0.159 HD
ENDBRANCH  53  54
ENDBRANCH  48  53
ENDBRANCH  45  48
ENDBRANCH  43  44
BRANCH  43  59
ATOM     59  CB  ARG A   5      25.862   9.605  -6.795  1.00  0.00     0.037 C 
BRANCH  59  60
ATOM     60  CG  ARG A   5      25.163  10.858  -6.268  1.00  0.00     0.024 C 
BRANCH  60  61
ATOM     61  CD  ARG A   5      25.838  11.392  -5.013  1.00  0.00     0.116 C 
BRANCH  61  62
ATOM     62  NE  ARG A   5      25.379  10.687  -3.819  1.00  0.00    -0.357 N 
ATOM     63  CZ  ARG A   5      25.476  11.282  -2.525  1.00  0.00     0.185 C 
ATOM     64  NH2 ARG A   5      26.107  12.551  -2.354  1.00  0.00    -0.370 N 
ATOM     65  H   UNL     1      24.900   9.762  -3.908  1.00  0.00     0.163 HD
ATOM     66  H   UNL     1      26.082  13.028  -1.425  1.00  0.00     0.159 HD
ATOM     67  H   UNL     1      26.689  12.992  -3.098  1.00  0.00     0.159 HD
BRANCH  63  68
ATOM     68  NH1 ARG A   5      24.979  10.667  -1.502  1.00  0.00    -0.270 NA
ATOM     69  H   UNL     1      25.025  11.070  -0.539  1.00  0.00     0.191 HD
ENDBRANCH  63  68
ENDBRANCH  61  62
ENDBRANCH  60  61
ENDBRANCH  59  60
ENDBRANCH  43  59
ENDBRANCH  40  43
ENDBRANCH   1  39
BRANCH   1  70
ATOM     70  CB  LEU A   4      20.656   7.998  -9.274  1.00  0.00     0.038 C 
BRANCH  70  71
ATOM     71  CG  LEU A   4      21.449   6.770  -9.769  1.00  0.00    -0.015 C 
ATOM     72  CD1 LEU A   4      21.762   5.778  -8.639  1.00  0.00     0.007 C 
ATOM     73  CD2 LEU A   4      20.662   6.066 -10.878  1.00  0.00     0.007 C 
ENDBRANCH  70  71
ENDBRANCH   1  70
TORSDOF 29
