REMARK SMILES CC(C)C[C@H](NC(=O)[C@H](CC(N)=O)NC(=O)[C@H](Cc1ccccc1)NC(=O)[C@@H](N)Cc1c[nH]cn1)C(=O)N[C@@H](CCCNC(=N)N)C(=O)N[C@@H](CC(N)=O)C(=O)O
REMARK SMILES IDX 7 1 8 2 6 3 9 5 14 6 15 7 16 8 17 10 25 11 26 12 27 13 28 15
REMARK SMILES IDX 29 16 30 19 31 20 35 21 32 22 34 23 33 24 18 26 19 27 20 28
REMARK SMILES IDX 24 29 21 30 23 31 22 32 10 33 11 34 12 35 13 36 5 39 36 40
REMARK SMILES IDX 38 41 37 42 39 44 47 45 49 46 48 47 50 49 55 50 56 51 57 52
REMARK SMILES IDX 51 54 52 55 53 56 54 57 40 60 41 61 42 62 43 63 44 64 46 65
REMARK SMILES IDX 45 69 4 71 2 72 1 73 3 74
REMARK H PARENT 6 4 14 9 25 14 29 17 29 18 33 25 12 37 12 38 38 43 49 48 57 53
REMARK H PARENT 53 58 53 59 43 66 46 67 46 68 45 70
ROOT
ATOM      1  C   ASN A   3      20.051  10.095  -6.458  1.00  0.00     0.243 C 
ATOM      2  O   ASN A   3      20.170   9.183  -5.594  1.00  0.00    -0.273 OA
ATOM      3  N   LEU A   4      20.563   9.921  -7.770  1.00  0.00    -0.342 N 
ATOM      4  H   UNL     1      20.395  10.659  -8.493  1.00  0.00     0.164 HD
ENDROOT
BRANCH   1   5
ATOM      5  CA  ASN A   3      19.346  11.367  -6.130  1.00  0.00     0.180 C 
BRANCH   5   6
ATOM      6  N   ASN A   3      18.088  11.044  -5.507  1.00  0.00    -0.342 N 
ATOM      7  C   PHE A   2      16.887  11.750  -5.775  1.00  0.00     0.243 C 
ATOM      8  O   PHE A   2      16.905  12.794  -6.483  1.00  0.00    -0.273 OA
ATOM      9  H   UNL     1      18.163  10.486  -4.631  1.00  0.00     0.164 HD
BRANCH   7  10
ATOM     10  CA  PHE A   2      15.649  11.315  -5.066  1.00  0.00     0.175 C 
BRANCH  10  11
ATOM     11  N   PHE A   2      14.457  11.744  -5.785  1.00  0.00    -0.343 N 
ATOM     12  C   HIS A   1      13.908  13.049  -5.633  1.00  0.00     0.237 C 
ATOM     13  O   HIS A   1      14.445  13.862  -4.831  1.00  0.00    -0.273 OA
ATOM     14  H   UNL     1      13.921  11.021  -6.311  1.00  0.00     0.164 HD
BRANCH  12  15
ATOM     15  CA  HIS A   1      12.648  13.424  -6.382  1.00  0.00     0.147 C 
BRANCH  15  16
ATOM     16  N   HIS A   1      12.480  14.880  -6.376  1.00  0.00    -0.320 NA
ATOM     17  H   UNL     1      11.548  15.119  -6.784  1.00  0.00     0.119 HD
ATOM     18  H   UNL     1      12.415  15.205  -5.383  1.00  0.00     0.119 HD
ENDBRANCH  15  16
BRANCH  15  19
ATOM     19  CB  HIS A   1      12.690  12.897  -7.839  1.00  0.00     0.086 C 
BRANCH  19  20
ATOM     20  CG  HIS A   1      11.480  13.303  -8.627  1.00  0.00     0.060 A 
ATOM     21  ND1 HIS A   1      11.477  14.280  -9.557  1.00  0.00    -0.242 NA
ATOM     22  CD2 HIS A   1      10.211  12.785  -8.488  1.00  0.00     0.107 A 
ATOM     23  CE1 HIS A   1      10.194  14.327  -9.972  1.00  0.00     0.196 A 
ATOM     24  NE2 HIS A   1       9.407  13.434  -9.342  1.00  0.00    -0.351 N 
ATOM     25  H   UNL     1       8.384  13.283  -9.484  1.00  0.00     0.167 HD
ENDBRANCH  19  20
ENDBRANCH  15  19
ENDBRANCH  12  15
ENDBRANCH  10  11
BRANCH  10  26
ATOM     26  CB  PHE A   2      15.608   9.775  -4.895  1.00  0.00     0.070 C 
BRANCH  26  27
ATOM     27  CG  PHE A   2      14.440   9.292  -4.094  1.00  0.00    -0.045 A 
ATOM     28  CD1 PHE A   2      13.901  10.048  -3.035  1.00  0.00     0.004 A 
ATOM     29  CD2 PHE A   2      13.966   7.991  -4.311  1.00  0.00     0.004 A 
ATOM     30  CE1 PHE A   2      12.869   9.536  -2.260  1.00  0.00     0.000 A 
ATOM     31  CE2 PHE A   2      12.939   7.477  -3.520  1.00  0.00     0.000 A 
ATOM     32  CZ  PHE A   2      12.387   8.253  -2.501  1.00  0.00     0.000 A 
ENDBRANCH  26  27
ENDBRANCH  10  26
ENDBRANCH   7  10
ENDBRANCH   5   6
BRANCH   5  33
ATOM     33  CB  ASN A   3      20.177  12.264  -5.201  1.00  0.00     0.134 C 
BRANCH  33  34
ATOM     34  CG  ASN A   3      20.422  11.674  -3.833  1.00  0.00     0.220 C 
ATOM     35  ND2 ASN A   3      21.598  10.906  -3.576  1.00  0.00    -0.370 N 
ATOM     36  OD1 ASN A   3      19.585  11.861  -2.910  1.00  0.00    -0.275 OA
ATOM     37  H   UNL     1      21.767  10.501  -2.628  1.00  0.00     0.159 HD
ATOM     38  H   UNL     1      22.301  10.740  -4.328  1.00  0.00     0.159 HD
ENDBRANCH  33  34
ENDBRANCH   5  33
ENDBRANCH   1   5
BRANCH   3  39
ATOM     39  CA  LEU A   4      21.347   8.760  -8.138  1.00  0.00     0.171 C 
BRANCH  39  40
ATOM     40  C   LEU A   4      22.713   9.216  -8.519  1.00  0.00     0.243 C 
ATOM     41  N   ARG A   5      23.822   8.720  -7.785  1.00  0.00    -0.343 N 
ATOM     42  O   LEU A   4      22.876  10.032  -9.467  1.00  0.00    -0.273 OA
ATOM     43  H   UNL     1      23.667   8.030  -7.014  1.00  0.00     0.164 HD
BRANCH  41  44
ATOM     44  CA  ARG A   5      25.185   9.122  -8.073  1.00  0.00     0.171 C 
BRANCH  44  45
ATOM     45  C   ARG A   5      25.900   7.968  -8.685  1.00  0.00     0.243 C 
ATOM     46  N   ASN A   6      25.913   7.864 -10.102  1.00  0.00    -0.341 N 
ATOM     47  O   ARG A   5      26.447   7.087  -7.969  1.00  0.00    -0.273 OA
ATOM     48  H   UNL     1      25.488   8.647 -10.651  1.00  0.00     0.164 HD
BRANCH  46  49
ATOM     49  CA  ASN A   6      26.542   6.751 -10.804  1.00  0.00     0.201 C 
BRANCH  49  50
ATOM     50  C   ASN A   6      27.993   6.642 -10.416  1.00  0.00     0.326 C 
ATOM     51  O   ASN A   6      28.794   7.579 -10.677  1.00  0.00    -0.250 OA
BRANCH  50  52
ATOM     52  OXT ASN A   6      28.451   5.499  -9.768  1.00  0.00    -0.480 OA
ATOM     53  H   UNL     1      29.424   5.409  -9.499  1.00  0.00     0.296 HD
ENDBRANCH  50  52
ENDBRANCH  49  50
BRANCH  49  54
ATOM     54  CB  ASN A   6      26.424   6.947 -12.323  1.00  0.00     0.136 C 
BRANCH  54  55
ATOM     55  CG  ASN A   6      25.010   7.180 -12.773  1.00  0.00     0.220 C 
ATOM     56  ND2 ASN A   6      24.753   8.090 -13.833  1.00  0.00    -0.370 N 
ATOM     57  OD1 ASN A   6      24.053   6.558 -12.243  1.00  0.00    -0.275 OA
ATOM     58  H   UNL     1      23.774   8.258 -14.156  1.00  0.00     0.159 HD
ATOM     59  H   UNL     1      25.533   8.600 -14.306  1.00  0.00     0.159 HD
ENDBRANCH  54  55
ENDBRANCH  49  54
ENDBRANCH  46  49
ENDBRANCH  44  45
BRANCH  44  60
ATOM     60  CB  ARG A   5      25.863   9.605  -6.795  1.00  0.00     0.037 C 
BRANCH  60  61
ATOM     61  CG  ARG A   5      25.168  10.861  -6.271  1.00  0.00     0.024 C 
BRANCH  61  62
ATOM     62  CD  ARG A   5      25.841  11.391  -5.014  1.00  0.00     0.116 C 
BRANCH  62  63
ATOM     63  NE  ARG A   5      25.376  10.687  -3.821  1.00  0.00    -0.357 N 
ATOM     64  CZ  ARG A   5      25.468  11.281  -2.527  1.00  0.00     0.185 C 
ATOM     65  NH2 ARG A   5      26.108  12.545  -2.351  1.00  0.00    -0.370 N 
ATOM     66  H   UNL     1      24.894   9.763  -3.913  1.00  0.00     0.163 HD
ATOM     67  H   UNL     1      26.083  13.022  -1.422  1.00  0.00     0.159 HD
ATOM     68  H   UNL     1      26.698  12.981  -3.092  1.00  0.00     0.159 HD
BRANCH  64  69
ATOM     69  NH1 ARG A   5      24.954  10.671  -1.507  1.00  0.00    -0.270 NA
ATOM     70  H   UNL     1      24.996  11.075  -0.545  1.00  0.00     0.191 HD
ENDBRANCH  64  69
ENDBRANCH  62  63
ENDBRANCH  61  62
ENDBRANCH  60  61
ENDBRANCH  44  60
ENDBRANCH  41  44
ENDBRANCH  39  40
BRANCH  39  71
ATOM     71  CB  LEU A   4      20.654   7.999  -9.270  1.00  0.00     0.038 C 
BRANCH  71  72
ATOM     72  CG  LEU A   4      21.448   6.771  -9.768  1.00  0.00    -0.015 C 
ATOM     73  CD1 LEU A   4      21.762   5.778  -8.639  1.00  0.00     0.007 C 
ATOM     74  CD2 LEU A   4      20.661   6.068 -10.877  1.00  0.00     0.007 C 
ENDBRANCH  71  72
ENDBRANCH  39  71
ENDBRANCH   3  39
TORSDOF 28
