REMARK SMILES CC(C)C[C@H](NC(=O)[C@H](Cc1ccccc1)NC(=O)[C@@H](N)CO)C(=O)N[C@@H](C)C(=O)N[C@@H](CCCNC(=N)N)C(=O)N[C@@H](CO)C(=O)O
REMARK SMILES IDX 24 1 25 2 26 3 5 5 6 6 7 7 8 8 9 10 17 11 18 12 19 13 20 15
REMARK SMILES IDX 21 16 22 19 23 20 10 22 11 23 12 24 16 25 13 26 15 27 14 28
REMARK SMILES IDX 4 29 2 30 1 31 3 32 27 33 28 34 29 35 31 36 30 37 32 39
REMARK SMILES IDX 40 40 42 41 41 42 43 44 46 45 47 46 48 47 44 49 45 50 33 52
REMARK SMILES IDX 34 53 35 54 36 55 37 56 39 57 38 61
REMARK H PARENT 26 4 6 9 17 14 21 17 21 18 23 21 31 38 42 43 48 48 45 51 36 58
REMARK H PARENT 39 59 39 60 38 62
ROOT
ATOM      1  C   LEU A   3       0.142  -2.257   2.533  1.00  0.00     0.243 C 
ATOM      2  O   LEU A   3       0.649  -1.930   3.641  1.00  0.00    -0.273 OA
ATOM      3  N   ALA A   4       0.931  -2.216   1.334  1.00  0.00    -0.343 N 
ATOM      4  H   UNL     1       0.472  -2.465   0.429  1.00  0.00     0.164 HD
ENDROOT
BRANCH   1   5
ATOM      5  CA  LEU A   3      -1.289  -2.724   2.488  1.00  0.00     0.171 C 
BRANCH   5   6
ATOM      6  N   LEU A   3      -2.068  -1.848   1.606  1.00  0.00    -0.343 N 
ATOM      7  C   PHE A   2      -2.409  -0.502   1.976  1.00  0.00     0.243 C 
ATOM      8  O   PHE A   2      -1.800   0.067   2.928  1.00  0.00    -0.273 OA
ATOM      9  H   UNL     1      -2.472  -2.234   0.726  1.00  0.00     0.164 HD
BRANCH   7  10
ATOM     10  CA  PHE A   2      -3.536   0.213   1.272  1.00  0.00     0.175 C 
BRANCH  10  11
ATOM     11  N   PHE A   2      -3.830   1.485   1.941  1.00  0.00    -0.343 N 
ATOM     12  C   SER A   1      -4.833   1.601   2.964  1.00  0.00     0.239 C 
ATOM     13  O   SER A   1      -5.358   0.564   3.455  1.00  0.00    -0.273 OA
ATOM     14  H   UNL     1      -3.269   2.328   1.682  1.00  0.00     0.164 HD
BRANCH  12  15
ATOM     15  CA  SER A   1      -5.282   2.958   3.458  1.00  0.00     0.167 C 
BRANCH  15  16
ATOM     16  N   SER A   1      -4.202   3.640   4.177  1.00  0.00    -0.318 NA
ATOM     17  H   UNL     1      -3.364   3.738   3.560  1.00  0.00     0.119 HD
ATOM     18  H   UNL     1      -3.922   3.055   4.998  1.00  0.00     0.119 HD
ENDBRANCH  15  16
BRANCH  15  19
ATOM     19  CB  SER A   1      -5.788   3.842   2.303  1.00  0.00     0.184 C 
BRANCH  19  20
ATOM     20  OG  SER A   1      -6.938   3.286   1.718  1.00  0.00    -0.394 OA
ATOM     21  H   UNL     1      -6.629   2.546   1.135  1.00  0.00     0.210 HD
ENDBRANCH  19  20
ENDBRANCH  15  19
ENDBRANCH  12  15
ENDBRANCH  10  11
BRANCH  10  22
ATOM     22  CB  PHE A   2      -3.214   0.459  -0.216  1.00  0.00     0.070 C 
BRANCH  22  23
ATOM     23  CG  PHE A   2      -4.372   1.138  -0.907  1.00  0.00    -0.045 A 
ATOM     24  CD1 PHE A   2      -4.345   2.522  -1.162  1.00  0.00     0.004 A 
ATOM     25  CD2 PHE A   2      -5.532   0.406  -1.219  1.00  0.00     0.004 A 
ATOM     26  CE1 PHE A   2      -5.454   3.158  -1.731  1.00  0.00     0.000 A 
ATOM     27  CE2 PHE A   2      -6.638   1.045  -1.788  1.00  0.00     0.000 A 
ATOM     28  CZ  PHE A   2      -6.598   2.418  -2.047  1.00  0.00     0.000 A 
ENDBRANCH  22  23
ENDBRANCH  10  22
ENDBRANCH   7  10
ENDBRANCH   5   6
BRANCH   5  29
ATOM     29  CB  LEU A   3      -1.346  -4.197   2.010  1.00  0.00     0.038 C 
BRANCH  29  30
ATOM     30  CG  LEU A   3      -2.608  -4.962   2.480  1.00  0.00    -0.015 C 
ATOM     31  CD1 LEU A   3      -2.473  -6.450   2.126  1.00  0.00     0.007 C 
ATOM     32  CD2 LEU A   3      -3.899  -4.399   1.870  1.00  0.00     0.007 C 
ENDBRANCH  29  30
ENDBRANCH   5  29
ENDBRANCH   1   5
BRANCH   3  33
ATOM     33  CA  ALA A   4       2.386  -2.055   1.358  1.00  0.00     0.168 C 
ATOM     34  CB  ALA A   4       3.058  -3.423   1.327  1.00  0.00     0.041 C 
BRANCH  33  35
ATOM     35  C   ALA A   4       2.839  -1.229   0.187  1.00  0.00     0.242 C 
ATOM     36  N   ARG A   5       3.737  -0.126   0.389  1.00  0.00    -0.343 N 
ATOM     37  O   ALA A   4       2.452  -1.528  -0.979  1.00  0.00    -0.273 OA
ATOM     38  H   UNL     1       4.113   0.048   1.348  1.00  0.00     0.164 HD
BRANCH  36  39
ATOM     39  CA  ARG A   5       4.217   0.698  -0.724  1.00  0.00     0.171 C 
BRANCH  39  40
ATOM     40  C   ARG A   5       5.366   0.011  -1.407  1.00  0.00     0.243 C 
ATOM     41  N   SER A   6       5.379  -0.118  -2.836  1.00  0.00    -0.339 N 
ATOM     42  O   ARG A   5       6.334  -0.416  -0.719  1.00  0.00    -0.273 OA
ATOM     43  H   UNL     1       4.570   0.255  -3.382  1.00  0.00     0.164 HD
BRANCH  41  44
ATOM     44  CA  SER A   6       6.499  -0.741  -3.550  1.00  0.00     0.218 C 
BRANCH  44  45
ATOM     45  C   SER A   6       7.682   0.184  -3.556  1.00  0.00     0.328 C 
ATOM     46  O   SER A   6       7.529   1.413  -3.785  1.00  0.00    -0.250 OA
BRANCH  45  47
ATOM     47  OXT SER A   6       8.961  -0.328  -3.351  1.00  0.00    -0.480 OA
ATOM     48  H   UNL     1       9.772   0.279  -3.361  1.00  0.00     0.296 HD
ENDBRANCH  45  47
ENDBRANCH  44  45
BRANCH  44  49
ATOM     49  CB  SER A   6       6.101  -1.085  -4.992  1.00  0.00     0.193 C 
BRANCH  49  50
ATOM     50  OG  SER A   6       5.018  -1.978  -5.008  1.00  0.00    -0.394 OA
ATOM     51  H   UNL     1       5.379  -2.870  -4.752  1.00  0.00     0.210 HD
ENDBRANCH  49  50
ENDBRANCH  44  49
ENDBRANCH  41  44
ENDBRANCH  39  40
BRANCH  39  52
ATOM     52  CB  ARG A   5       4.660   2.090  -0.233  1.00  0.00     0.037 C 
BRANCH  52  53
ATOM     53  CG  ARG A   5       3.521   2.916   0.398  1.00  0.00     0.024 C 
BRANCH  53  54
ATOM     54  CD  ARG A   5       2.357   3.227  -0.555  1.00  0.00     0.116 C 
BRANCH  54  55
ATOM     55  NE  ARG A   5       2.838   3.866  -1.782  1.00  0.00    -0.357 N 
ATOM     56  CZ  ARG A   5       2.954   3.171  -3.033  1.00  0.00     0.185 C 
ATOM     57  NH2 ARG A   5       4.086   3.409  -3.864  1.00  0.00    -0.370 N 
ATOM     58  H   UNL     1       3.344   4.772  -1.685  1.00  0.00     0.163 HD
ATOM     59  H   UNL     1       4.844   4.058  -3.552  1.00  0.00     0.159 HD
ATOM     60  H   UNL     1       4.193   2.907  -4.775  1.00  0.00     0.159 HD
BRANCH  56  61
ATOM     61  NH1 ARG A   5       2.027   2.362  -3.440  1.00  0.00    -0.270 NA
ATOM     62  H   UNL     1       1.159   2.174  -2.896  1.00  0.00     0.191 HD
ENDBRANCH  56  61
ENDBRANCH  54  55
ENDBRANCH  53  54
ENDBRANCH  52  53
ENDBRANCH  39  52
ENDBRANCH  36  39
ENDBRANCH  33  35
ENDBRANCH   3  33
TORSDOF 26
