REMARK SMILES CC(C)C[C@H](NC(=O)[C@H](CO)NC(=O)[C@H](Cc1ccccc1)NC(=O)[C@@H](N)CO)C(=O)N[C@@H](CCCNC(=N)N)C(=O)NCC(=O)O
REMARK SMILES IDX 7 1 8 2 6 3 9 5 12 6 13 7 14 8 15 10 23 11 24 12 25 13 26 15
REMARK SMILES IDX 27 16 28 19 29 20 16 22 17 23 18 24 22 25 19 26 21 27 20 28
REMARK SMILES IDX 10 29 11 30 5 32 30 33 32 34 31 35 33 37 41 38 43 39 42 40
REMARK SMILES IDX 44 42 45 43 46 44 47 45 34 47 35 48 36 49 37 50 38 51 40 52
REMARK SMILES IDX 39 56 4 58 2 59 1 60 3 61
REMARK H PARENT 6 4 12 9 23 14 27 17 27 18 29 21 11 31 32 36 43 41 47 46 37 53
REMARK H PARENT 40 54 40 55 39 57
ROOT
ATOM      1  C   SER A   3      20.044  10.101  -6.462  1.00  0.00     0.245 C 
ATOM      2  O   SER A   3      20.173   9.200  -5.587  1.00  0.00    -0.273 OA
ATOM      3  N   LEU A   4      20.560   9.921  -7.772  1.00  0.00    -0.342 N 
ATOM      4  H   UNL     1      20.391  10.655  -8.498  1.00  0.00     0.164 HD
ENDROOT
BRANCH   1   5
ATOM      5  CA  SER A   3      19.341  11.376  -6.146  1.00  0.00     0.197 C 
BRANCH   5   6
ATOM      6  N   SER A   3      18.095  11.060  -5.496  1.00  0.00    -0.340 N 
ATOM      7  C   PHE A   2      16.887  11.751  -5.774  1.00  0.00     0.243 C 
ATOM      8  O   PHE A   2      16.897  12.791  -6.490  1.00  0.00    -0.273 OA
ATOM      9  H   UNL     1      18.187  10.558  -4.585  1.00  0.00     0.164 HD
BRANCH   7  10
ATOM     10  CA  PHE A   2      15.653  11.315  -5.059  1.00  0.00     0.175 C 
BRANCH  10  11
ATOM     11  N   PHE A   2      14.454  11.740  -5.768  1.00  0.00    -0.343 N 
ATOM     12  C   SER A   1      13.915  13.051  -5.637  1.00  0.00     0.239 C 
ATOM     13  O   SER A   1      14.444  13.870  -4.836  1.00  0.00    -0.273 OA
ATOM     14  H   UNL     1      13.865  11.000  -6.208  1.00  0.00     0.164 HD
BRANCH  12  15
ATOM     15  CA  SER A   1      12.661  13.410  -6.389  1.00  0.00     0.167 C 
BRANCH  15  16
ATOM     16  N   SER A   1      12.472  14.862  -6.376  1.00  0.00    -0.318 NA
ATOM     17  H   UNL     1      13.202  15.317  -6.972  1.00  0.00     0.119 HD
ATOM     18  H   UNL     1      11.539  15.087  -6.794  1.00  0.00     0.119 HD
ENDBRANCH  15  16
BRANCH  15  19
ATOM     19  CB  SER A   1      12.687  12.878  -7.844  1.00  0.00     0.184 C 
BRANCH  19  20
ATOM     20  OG  SER A   1      11.437  13.047  -8.451  1.00  0.00    -0.394 OA
ATOM     21  H   UNL     1      10.832  12.368  -8.054  1.00  0.00     0.210 HD
ENDBRANCH  19  20
ENDBRANCH  15  19
ENDBRANCH  12  15
ENDBRANCH  10  11
BRANCH  10  22
ATOM     22  CB  PHE A   2      15.619   9.776  -4.891  1.00  0.00     0.070 C 
BRANCH  22  23
ATOM     23  CG  PHE A   2      14.449   9.289  -4.088  1.00  0.00    -0.045 A 
ATOM     24  CD1 PHE A   2      13.906  10.047  -3.032  1.00  0.00     0.004 A 
ATOM     25  CD2 PHE A   2      13.972   7.990  -4.310  1.00  0.00     0.004 A 
ATOM     26  CE1 PHE A   2      12.870   9.536  -2.261  1.00  0.00     0.000 A 
ATOM     27  CE2 PHE A   2      12.941   7.478  -3.522  1.00  0.00     0.000 A 
ATOM     28  CZ  PHE A   2      12.387   8.253  -2.503  1.00  0.00     0.000 A 
ENDBRANCH  22  23
ENDBRANCH  10  22
ENDBRANCH   7  10
ENDBRANCH   5   6
BRANCH   5  29
ATOM     29  CB  SER A   3      20.189  12.247  -5.218  1.00  0.00     0.191 C 
BRANCH  29  30
ATOM     30  OG  SER A   3      19.539  13.458  -4.939  1.00  0.00    -0.394 OA
ATOM     31  H   UNL     1      19.626  14.021  -5.752  1.00  0.00     0.210 HD
ENDBRANCH  29  30
ENDBRANCH   5  29
ENDBRANCH   1   5
BRANCH   3  32
ATOM     32  CA  LEU A   4      21.346   8.760  -8.137  1.00  0.00     0.171 C 
BRANCH  32  33
ATOM     33  C   LEU A   4      22.711   9.217  -8.521  1.00  0.00     0.243 C 
ATOM     34  N   ARG A   5      23.823   8.719  -7.792  1.00  0.00    -0.343 N 
ATOM     35  O   LEU A   4      22.872  10.035  -9.468  1.00  0.00    -0.273 OA
ATOM     36  H   UNL     1      23.670   8.030  -7.021  1.00  0.00     0.164 HD
BRANCH  34  37
ATOM     37  CA  ARG A   5      25.185   9.120  -8.087  1.00  0.00     0.171 C 
BRANCH  37  38
ATOM     38  C   ARG A   5      25.897   7.960  -8.698  1.00  0.00     0.243 C 
ATOM     39  N   GLY A   6      25.891   7.823 -10.117  1.00  0.00    -0.343 N 
ATOM     40  O   ARG A   5      26.453   7.092  -7.973  1.00  0.00    -0.273 OA
ATOM     41  H   UNL     1      25.398   8.536 -10.701  1.00  0.00     0.164 HD
BRANCH  39  42
ATOM     42  CA  GLY A   6      26.551   6.716 -10.794  1.00  0.00     0.238 C 
BRANCH  42  43
ATOM     43  C   GLY A   6      28.000   6.644 -10.414  1.00  0.00     0.322 C 
ATOM     44  O   GLY A   6      28.781   7.588 -10.704  1.00  0.00    -0.250 OA
BRANCH  43  45
ATOM     45  OXT GLY A   6      28.483   5.528  -9.737  1.00  0.00    -0.480 OA
ATOM     46  H   UNL     1      29.458   5.464  -9.471  1.00  0.00     0.296 HD
ENDBRANCH  43  45
ENDBRANCH  42  43
ENDBRANCH  39  42
ENDBRANCH  37  38
BRANCH  37  47
ATOM     47  CB  ARG A   5      25.865   9.606  -6.809  1.00  0.00     0.037 C 
BRANCH  47  48
ATOM     48  CG  ARG A   5      25.167  10.858  -6.276  1.00  0.00     0.024 C 
BRANCH  48  49
ATOM     49  CD  ARG A   5      25.842  11.388  -5.018  1.00  0.00     0.116 C 
BRANCH  49  50
ATOM     50  NE  ARG A   5      25.378  10.684  -3.826  1.00  0.00    -0.357 N 
ATOM     51  CZ  ARG A   5      25.468  11.278  -2.529  1.00  0.00     0.185 C 
ATOM     52  NH2 ARG A   5      26.106  12.541  -2.352  1.00  0.00    -0.370 N 
ATOM     53  H   UNL     1      24.905   9.756  -3.923  1.00  0.00     0.163 HD
ATOM     54  H   UNL     1      26.692  12.983  -3.093  1.00  0.00     0.159 HD
ATOM     55  H   UNL     1      26.084  13.006  -1.417  1.00  0.00     0.159 HD
BRANCH  51  56
ATOM     56  NH1 ARG A   5      24.959  10.678  -1.501  1.00  0.00    -0.270 NA
ATOM     57  H   UNL     1      24.478   9.755  -1.585  1.00  0.00     0.191 HD
ENDBRANCH  51  56
ENDBRANCH  49  50
ENDBRANCH  48  49
ENDBRANCH  47  48
ENDBRANCH  37  47
ENDBRANCH  34  37
ENDBRANCH  32  33
BRANCH  32  58
ATOM     58  CB  LEU A   4      20.655   7.998  -9.270  1.00  0.00     0.038 C 
BRANCH  58  59
ATOM     59  CG  LEU A   4      21.449   6.770  -9.769  1.00  0.00    -0.015 C 
ATOM     60  CD1 LEU A   4      21.763   5.778  -8.639  1.00  0.00     0.007 C 
ATOM     61  CD2 LEU A   4      20.659   6.066 -10.875  1.00  0.00     0.007 C 
ENDBRANCH  58  59
ENDBRANCH  32  58
ENDBRANCH   3  32
TORSDOF 26
