REMARK SMILES CC(C)C[C@H](NC(=O)[C@H](Cc1ccccc1)NC(=O)[C@@H](N)CO)C(=O)N[C@@H](C)C(=O)N[C@@H](CCCNC(=N)N)C(=O)N[C@@H](Cc1c[nH]cn1)C(=O)O
REMARK SMILES IDX 24 1 25 2 26 3 5 5 6 6 7 7 8 8 9 10 17 11 18 12 19 13 20 15
REMARK SMILES IDX 21 16 22 19 23 20 10 22 11 23 12 24 16 25 13 26 15 27 14 28
REMARK SMILES IDX 4 29 2 30 1 31 3 32 27 33 28 34 29 35 31 36 30 37 32 39
REMARK SMILES IDX 40 40 42 41 41 42 43 44 50 45 51 46 52 47 44 49 45 50 49 51
REMARK SMILES IDX 46 52 48 53 47 54 33 56 34 57 35 58 36 59 37 60 39 61 38 65
REMARK H PARENT 26 4 6 9 17 14 21 17 21 18 23 21 31 38 42 43 52 48 47 55 36 62
REMARK H PARENT 39 63 39 64 38 66
ROOT
ATOM      1  C   LEU A   3      20.054  10.082  -6.477  1.00  0.00     0.243 C 
ATOM      2  O   LEU A   3      20.168   9.158  -5.624  1.00  0.00    -0.273 OA
ATOM      3  N   ALA A   4      20.564   9.911  -7.788  1.00  0.00    -0.343 N 
ATOM      4  H   UNL     1      20.402  10.653  -8.507  1.00  0.00     0.164 HD
ENDROOT
BRANCH   1   5
ATOM      5  CA  LEU A   3      19.341  11.352  -6.147  1.00  0.00     0.171 C 
BRANCH   5   6
ATOM      6  N   LEU A   3      18.084  11.019  -5.538  1.00  0.00    -0.343 N 
ATOM      7  C   PHE A   2      16.887  11.744  -5.776  1.00  0.00     0.243 C 
ATOM      8  O   PHE A   2      16.906  12.795  -6.474  1.00  0.00    -0.273 OA
ATOM      9  H   UNL     1      18.156  10.385  -4.719  1.00  0.00     0.164 HD
BRANCH   7  10
ATOM     10  CA  PHE A   2      15.653  11.312  -5.056  1.00  0.00     0.175 C 
BRANCH  10  11
ATOM     11  N   PHE A   2      14.456  11.739  -5.766  1.00  0.00    -0.343 N 
ATOM     12  C   SER A   1      13.919  13.049  -5.633  1.00  0.00     0.239 C 
ATOM     13  O   SER A   1      14.449  13.867  -4.832  1.00  0.00    -0.273 OA
ATOM     14  H   UNL     1      13.869  11.000  -6.212  1.00  0.00     0.164 HD
BRANCH  12  15
ATOM     15  CA  SER A   1      12.662  13.410  -6.386  1.00  0.00     0.167 C 
BRANCH  15  16
ATOM     16  N   SER A   1      12.455  14.860  -6.398  1.00  0.00    -0.318 NA
ATOM     17  H   UNL     1      12.286  15.190  -5.420  1.00  0.00     0.119 HD
ATOM     18  H   UNL     1      13.316  15.337  -6.755  1.00  0.00     0.119 HD
ENDBRANCH  15  16
BRANCH  15  19
ATOM     19  CB  SER A   1      12.690  12.886  -7.840  1.00  0.00     0.184 C 
BRANCH  19  20
ATOM     20  OG  SER A   1      11.438  13.053  -8.445  1.00  0.00    -0.394 OA
ATOM     21  H   UNL     1      10.839  12.361  -8.060  1.00  0.00     0.210 HD
ENDBRANCH  19  20
ENDBRANCH  15  19
ENDBRANCH  12  15
ENDBRANCH  10  11
BRANCH  10  22
ATOM     22  CB  PHE A   2      15.610   9.772  -4.880  1.00  0.00     0.070 C 
BRANCH  22  23
ATOM     23  CG  PHE A   2      14.435   9.292  -4.092  1.00  0.00    -0.045 A 
ATOM     24  CD1 PHE A   2      13.898  10.048  -3.033  1.00  0.00     0.004 A 
ATOM     25  CD2 PHE A   2      13.964   7.991  -4.310  1.00  0.00     0.004 A 
ATOM     26  CE1 PHE A   2      12.866   9.535  -2.258  1.00  0.00     0.000 A 
ATOM     27  CE2 PHE A   2      12.937   7.477  -3.520  1.00  0.00     0.000 A 
ATOM     28  CZ  PHE A   2      12.384   8.252  -2.500  1.00  0.00     0.000 A 
ENDBRANCH  22  23
ENDBRANCH  10  22
ENDBRANCH   7  10
ENDBRANCH   5   6
BRANCH   5  29
ATOM     29  CB  LEU A   3      20.165  12.251  -5.216  1.00  0.00     0.038 C 
BRANCH  29  30
ATOM     30  CG  LEU A   3      20.417  11.679  -3.791  1.00  0.00    -0.015 C 
ATOM     31  CD1 LEU A   3      21.819  12.066  -3.316  1.00  0.00     0.007 C 
ATOM     32  CD2 LEU A   3      19.369  12.169  -2.781  1.00  0.00     0.007 C 
ENDBRANCH  29  30
ENDBRANCH   5  29
ENDBRANCH   1   5
BRANCH   3  33
ATOM     33  CA  ALA A   4      21.343   8.746  -8.159  1.00  0.00     0.168 C 
ATOM     34  CB  ALA A   4      20.666   8.005  -9.303  1.00  0.00     0.041 C 
BRANCH  33  35
ATOM     35  C   ALA A   4      22.711   9.197  -8.534  1.00  0.00     0.242 C 
ATOM     36  N   ARG A   5      23.817   8.706  -7.791  1.00  0.00    -0.343 N 
ATOM     37  O   ALA A   4      22.878  10.025  -9.471  1.00  0.00    -0.273 OA
ATOM     38  H   UNL     1      23.661   7.985  -7.049  1.00  0.00     0.164 HD
BRANCH  36  39
ATOM     39  CA  ARG A   5      25.181   9.116  -8.071  1.00  0.00     0.171 C 
BRANCH  39  40
ATOM     40  C   ARG A   5      25.901   7.967  -8.688  1.00  0.00     0.243 C 
ATOM     41  N   HIS A   6      25.910   7.867 -10.105  1.00  0.00    -0.341 N 
ATOM     42  O   ARG A   5      26.451   7.085  -7.974  1.00  0.00    -0.273 OA
ATOM     43  H   UNL     1      25.487   8.656 -10.646  1.00  0.00     0.164 HD
BRANCH  41  44
ATOM     44  CA  HIS A   6      26.536   6.761 -10.820  1.00  0.00     0.198 C 
BRANCH  44  45
ATOM     45  C   HIS A   6      27.986   6.644 -10.429  1.00  0.00     0.326 C 
ATOM     46  O   HIS A   6      28.792   7.580 -10.680  1.00  0.00    -0.250 OA
BRANCH  45  47
ATOM     47  OXT HIS A   6      28.439   5.494  -9.790  1.00  0.00    -0.480 OA
ATOM     48  H   UNL     1      29.411   5.398  -9.520  1.00  0.00     0.296 HD
ENDBRANCH  45  47
ENDBRANCH  44  45
BRANCH  44  49
ATOM     49  CB  HIS A   6      26.416   6.979 -12.339  1.00  0.00     0.094 C 
BRANCH  49  50
ATOM     50  CG  HIS A   6      24.986   7.153 -12.769  1.00  0.00     0.061 A 
ATOM     51  ND1 HIS A   6      24.052   6.185 -12.685  1.00  0.00    -0.242 NA
ATOM     52  CD2 HIS A   6      24.415   8.313 -13.245  1.00  0.00     0.107 A 
ATOM     53  CE1 HIS A   6      22.924   6.784 -13.122  1.00  0.00     0.196 A 
ATOM     54  NE2 HIS A   6      23.115   8.071 -13.466  1.00  0.00    -0.351 N 
ATOM     55  H   UNL     1      22.400   8.743 -13.822  1.00  0.00     0.167 HD
ENDBRANCH  49  50
ENDBRANCH  44  49
ENDBRANCH  41  44
ENDBRANCH  39  40
BRANCH  39  56
ATOM     56  CB  ARG A   5      25.856   9.599  -6.793  1.00  0.00     0.037 C 
BRANCH  56  57
ATOM     57  CG  ARG A   5      25.164  10.858  -6.272  1.00  0.00     0.024 C 
BRANCH  57  58
ATOM     58  CD  ARG A   5      25.838  11.390  -5.015  1.00  0.00     0.116 C 
BRANCH  58  59
ATOM     59  NE  ARG A   5      25.377  10.684  -3.823  1.00  0.00    -0.357 N 
ATOM     60  CZ  ARG A   5      25.468  11.279  -2.527  1.00  0.00     0.185 C 
ATOM     61  NH2 ARG A   5      26.105  12.541  -2.350  1.00  0.00    -0.370 N 
ATOM     62  H   UNL     1      24.898   9.759  -3.921  1.00  0.00     0.163 HD
ATOM     63  H   UNL     1      26.691  12.983  -3.092  1.00  0.00     0.159 HD
ATOM     64  H   UNL     1      26.081  13.008  -1.416  1.00  0.00     0.159 HD
BRANCH  60  65
ATOM     65  NH1 ARG A   5      24.957  10.680  -1.500  1.00  0.00    -0.270 NA
ATOM     66  H   UNL     1      24.474   9.757  -1.584  1.00  0.00     0.191 HD
ENDBRANCH  60  65
ENDBRANCH  58  59
ENDBRANCH  57  58
ENDBRANCH  56  57
ENDBRANCH  39  56
ENDBRANCH  36  39
ENDBRANCH  33  35
ENDBRANCH   3  33
TORSDOF 26
