REMARK SMILES CC(C)C[C@H](NC(=O)CNC(=O)[C@H](CCCCN)NC(=O)[C@@H](N)CO)C(=O)N[C@@H](CCCNC(=N)N)C(=O)N[C@@H](CC(N)=O)C(=O)O
REMARK SMILES IDX 7 1 8 2 6 3 9 5 10 6 11 7 12 8 13 10 19 11 20 12 21 13 22 15
REMARK SMILES IDX 23 16 24 19 25 20 14 22 15 23 16 24 17 25 18 26 5 29 26 30
REMARK SMILES IDX 28 31 27 32 29 34 37 35 39 36 38 37 40 39 45 40 46 41 47 42
REMARK SMILES IDX 41 44 42 45 43 46 44 47 30 50 31 51 32 52 33 53 34 54 36 55
REMARK SMILES IDX 35 59 4 61 2 62 1 63 3 64
REMARK H PARENT 6 4 10 9 19 14 23 17 23 18 25 21 18 27 18 28 28 33 39 38 47 43
REMARK H PARENT 43 48 43 49 33 56 36 57 36 58 35 60
ROOT
ATOM      1  C   GLY A   3      20.037  10.100  -6.464  1.00  0.00     0.240 C 
ATOM      2  O   GLY A   3      20.171   9.204  -5.584  1.00  0.00    -0.273 OA
ATOM      3  N   LEU A   4      20.557   9.921  -7.772  1.00  0.00    -0.343 N 
ATOM      4  H   UNL     1      20.388  10.655  -8.498  1.00  0.00     0.164 HD
ENDROOT
BRANCH   1   5
ATOM      5  CA  GLY A   3      19.340  11.373  -6.148  1.00  0.00     0.216 C 
BRANCH   5   6
ATOM      6  N   GLY A   3      18.106  11.078  -5.460  1.00  0.00    -0.345 N 
ATOM      7  C   LYS A   2      16.887  11.755  -5.738  1.00  0.00     0.243 C 
ATOM      8  O   LYS A   2      16.889  12.786  -6.467  1.00  0.00    -0.273 OA
ATOM      9  H   UNL     1      18.211  10.600  -4.537  1.00  0.00     0.164 HD
BRANCH   7  10
ATOM     10  CA  LYS A   2      15.635  11.288  -5.045  1.00  0.00     0.171 C 
BRANCH  10  11
ATOM     11  N   LYS A   2      14.456  11.734  -5.772  1.00  0.00    -0.343 N 
ATOM     12  C   SER A   1      13.918  13.045  -5.634  1.00  0.00     0.239 C 
ATOM     13  O   SER A   1      14.449  13.859  -4.830  1.00  0.00    -0.273 OA
ATOM     14  H   UNL     1      13.901  11.013  -6.280  1.00  0.00     0.164 HD
BRANCH  12  15
ATOM     15  CA  SER A   1      12.663  13.410  -6.388  1.00  0.00     0.167 C 
BRANCH  15  16
ATOM     16  N   SER A   1      12.456  14.860  -6.395  1.00  0.00    -0.318 NA
ATOM     17  H   UNL     1      12.286  15.186  -5.415  1.00  0.00     0.119 HD
ATOM     18  H   UNL     1      13.317  15.337  -6.749  1.00  0.00     0.119 HD
ENDBRANCH  15  16
BRANCH  15  19
ATOM     19  CB  SER A   1      12.688  12.893  -7.846  1.00  0.00     0.184 C 
BRANCH  19  20
ATOM     20  OG  SER A   1      11.434  13.059  -8.446  1.00  0.00    -0.394 OA
ATOM     21  H   UNL     1      10.837  12.366  -8.061  1.00  0.00     0.210 HD
ENDBRANCH  19  20
ENDBRANCH  15  19
ENDBRANCH  12  15
ENDBRANCH  10  11
BRANCH  10  22
ATOM     22  CB  LYS A   2      15.600   9.744  -4.934  1.00  0.00     0.035 C 
BRANCH  22  23
ATOM     23  CG  LYS A   2      14.434   9.259  -4.063  1.00  0.00     0.004 C 
BRANCH  23  24
ATOM     24  CD  LYS A   2      14.278   7.730  -4.078  1.00  0.00     0.015 C 
BRANCH  24  25
ATOM     25  CE  LYS A   2      15.406   7.006  -3.321  1.00  0.00     0.077 C 
BRANCH  25  26
ATOM     26  NZ  LYS A   2      15.139   5.573  -3.218  1.00  0.00    -0.330 NA
ATOM     27  H   UNL     1      15.019   5.182  -4.181  1.00  0.00     0.118 HD
ATOM     28  H   UNL     1      14.241   5.432  -2.701  1.00  0.00     0.118 HD
ENDBRANCH  25  26
ENDBRANCH  24  25
ENDBRANCH  23  24
ENDBRANCH  22  23
ENDBRANCH  10  22
ENDBRANCH   7  10
ENDBRANCH   5   6
ENDBRANCH   1   5
BRANCH   3  29
ATOM     29  CA  LEU A   4      21.345   8.760  -8.136  1.00  0.00     0.171 C 
BRANCH  29  30
ATOM     30  C   LEU A   4      22.711   9.216  -8.518  1.00  0.00     0.243 C 
ATOM     31  N   ARG A   5      23.821   8.720  -7.784  1.00  0.00    -0.343 N 
ATOM     32  O   LEU A   4      22.874  10.032  -9.466  1.00  0.00    -0.273 OA
ATOM     33  H   UNL     1      23.666   8.029  -7.015  1.00  0.00     0.164 HD
BRANCH  31  34
ATOM     34  CA  ARG A   5      25.184   9.121  -8.073  1.00  0.00     0.171 C 
BRANCH  34  35
ATOM     35  C   ARG A   5      25.899   7.967  -8.685  1.00  0.00     0.243 C 
ATOM     36  N   ASN A   6      25.913   7.864 -10.102  1.00  0.00    -0.341 N 
ATOM     37  O   ARG A   5      26.447   7.087  -7.969  1.00  0.00    -0.273 OA
ATOM     38  H   UNL     1      25.489   8.647 -10.651  1.00  0.00     0.164 HD
BRANCH  36  39
ATOM     39  CA  ASN A   6      26.542   6.751 -10.804  1.00  0.00     0.201 C 
BRANCH  39  40
ATOM     40  C   ASN A   6      27.993   6.642 -10.416  1.00  0.00     0.326 C 
ATOM     41  O   ASN A   6      28.794   7.579 -10.677  1.00  0.00    -0.250 OA
BRANCH  40  42
ATOM     42  OXT ASN A   6      28.451   5.499  -9.768  1.00  0.00    -0.480 OA
ATOM     43  H   UNL     1      29.424   5.409  -9.499  1.00  0.00     0.296 HD
ENDBRANCH  40  42
ENDBRANCH  39  40
BRANCH  39  44
ATOM     44  CB  ASN A   6      26.424   6.947 -12.323  1.00  0.00     0.136 C 
BRANCH  44  45
ATOM     45  CG  ASN A   6      25.010   7.180 -12.773  1.00  0.00     0.220 C 
ATOM     46  ND2 ASN A   6      24.753   8.090 -13.833  1.00  0.00    -0.370 N 
ATOM     47  OD1 ASN A   6      24.053   6.558 -12.243  1.00  0.00    -0.275 OA
ATOM     48  H   UNL     1      25.533   8.600 -14.306  1.00  0.00     0.159 HD
ATOM     49  H   UNL     1      23.775   8.258 -14.156  1.00  0.00     0.159 HD
ENDBRANCH  44  45
ENDBRANCH  39  44
ENDBRANCH  36  39
ENDBRANCH  34  35
BRANCH  34  50
ATOM     50  CB  ARG A   5      25.863   9.604  -6.796  1.00  0.00     0.037 C 
BRANCH  50  51
ATOM     51  CG  ARG A   5      25.167  10.859  -6.270  1.00  0.00     0.024 C 
BRANCH  51  52
ATOM     52  CD  ARG A   5      25.842  11.390  -5.014  1.00  0.00     0.116 C 
BRANCH  52  53
ATOM     53  NE  ARG A   5      25.378  10.687  -3.820  1.00  0.00    -0.357 N 
ATOM     54  CZ  ARG A   5      25.470  11.282  -2.526  1.00  0.00     0.185 C 
ATOM     55  NH2 ARG A   5      26.109  12.546  -2.351  1.00  0.00    -0.370 N 
ATOM     56  H   UNL     1      24.900   9.761  -3.912  1.00  0.00     0.163 HD
ATOM     57  H   UNL     1      26.700  12.981  -3.092  1.00  0.00     0.159 HD
ATOM     58  H   UNL     1      26.083  13.022  -1.422  1.00  0.00     0.159 HD
BRANCH  54  59
ATOM     59  NH1 ARG A   5      24.956  10.671  -1.506  1.00  0.00    -0.270 NA
ATOM     60  H   UNL     1      24.999  11.075  -0.544  1.00  0.00     0.191 HD
ENDBRANCH  54  59
ENDBRANCH  52  53
ENDBRANCH  51  52
ENDBRANCH  50  51
ENDBRANCH  34  50
ENDBRANCH  31  34
ENDBRANCH  29  30
BRANCH  29  61
ATOM     61  CB  LEU A   4      20.654   7.998  -9.269  1.00  0.00     0.038 C 
BRANCH  61  62
ATOM     62  CG  LEU A   4      21.448   6.771  -9.767  1.00  0.00    -0.015 C 
ATOM     63  CD1 LEU A   4      21.762   5.778  -8.638  1.00  0.00     0.007 C 
ATOM     64  CD2 LEU A   4      20.662   6.067 -10.877  1.00  0.00     0.007 C 
ENDBRANCH  61  62
ENDBRANCH  29  61
ENDBRANCH   3  29
TORSDOF 29
