REMARK SMILES CC(C)C[C@H](NC(=O)[C@H](Cc1ccccc1)NC(=O)[C@@H](N)CO)C(=O)N[C@@H](C)C(=O)N[C@@H](CCCCN)C(=O)N[C@@H](CC(N)=O)C(=O)O
REMARK SMILES IDX 24 1 25 2 26 3 5 5 6 6 7 7 8 8 9 10 17 11 18 12 19 13 20 15
REMARK SMILES IDX 21 16 22 19 23 20 10 22 11 23 12 24 16 25 13 26 15 27 14 28
REMARK SMILES IDX 4 29 2 30 1 31 3 32 27 33 28 34 29 35 31 36 30 37 32 39
REMARK SMILES IDX 38 40 40 41 39 42 41 44 46 45 47 46 48 47 42 49 43 50 44 51
REMARK SMILES IDX 45 52 33 55 34 56 35 57 36 58 37 59
REMARK H PARENT 26 4 6 9 17 14 21 17 21 18 23 21 31 38 40 43 48 48 44 53 44 54
REMARK H PARENT 37 60 37 61
ROOT
ATOM      1  C   LEU A   3      20.054  10.081  -6.477  1.00  0.00     0.243 C 
ATOM      2  O   LEU A   3      20.168   9.158  -5.624  1.00  0.00    -0.273 OA
ATOM      3  N   ALA A   4      20.563   9.911  -7.787  1.00  0.00    -0.343 N 
ATOM      4  H   UNL     1      20.401  10.653  -8.507  1.00  0.00     0.164 HD
ENDROOT
BRANCH   1   5
ATOM      5  CA  LEU A   3      19.341  11.352  -6.147  1.00  0.00     0.171 C 
BRANCH   5   6
ATOM      6  N   LEU A   3      18.083  11.020  -5.538  1.00  0.00    -0.343 N 
ATOM      7  C   PHE A   2      16.887  11.745  -5.776  1.00  0.00     0.243 C 
ATOM      8  O   PHE A   2      16.905  12.796  -6.475  1.00  0.00    -0.273 OA
ATOM      9  H   UNL     1      18.155  10.387  -4.717  1.00  0.00     0.164 HD
BRANCH   7  10
ATOM     10  CA  PHE A   2      15.652  11.313  -5.057  1.00  0.00     0.175 C 
BRANCH  10  11
ATOM     11  N   PHE A   2      14.455  11.740  -5.767  1.00  0.00    -0.343 N 
ATOM     12  C   SER A   1      13.916  13.050  -5.637  1.00  0.00     0.239 C 
ATOM     13  O   SER A   1      14.444  13.870  -4.836  1.00  0.00    -0.273 OA
ATOM     14  H   UNL     1      13.869  11.000  -6.212  1.00  0.00     0.164 HD
BRANCH  12  15
ATOM     15  CA  SER A   1      12.662  13.410  -6.389  1.00  0.00     0.167 C 
BRANCH  15  16
ATOM     16  N   SER A   1      12.472  14.862  -6.376  1.00  0.00    -0.318 NA
ATOM     17  H   UNL     1      11.539  15.086  -6.793  1.00  0.00     0.119 HD
ATOM     18  H   UNL     1      13.202  15.317  -6.972  1.00  0.00     0.119 HD
ENDBRANCH  15  16
BRANCH  15  19
ATOM     19  CB  SER A   1      12.687  12.878  -7.844  1.00  0.00     0.184 C 
BRANCH  19  20
ATOM     20  OG  SER A   1      11.437  13.048  -8.451  1.00  0.00    -0.394 OA
ATOM     21  H   UNL     1      10.831  12.368  -8.054  1.00  0.00     0.210 HD
ENDBRANCH  19  20
ENDBRANCH  15  19
ENDBRANCH  12  15
ENDBRANCH  10  11
BRANCH  10  22
ATOM     22  CB  PHE A   2      15.610   9.774  -4.880  1.00  0.00     0.070 C 
BRANCH  22  23
ATOM     23  CG  PHE A   2      14.435   9.292  -4.092  1.00  0.00    -0.045 A 
ATOM     24  CD1 PHE A   2      13.898  10.048  -3.033  1.00  0.00     0.004 A 
ATOM     25  CD2 PHE A   2      13.964   7.991  -4.310  1.00  0.00     0.004 A 
ATOM     26  CE1 PHE A   2      12.866   9.535  -2.258  1.00  0.00     0.000 A 
ATOM     27  CE2 PHE A   2      12.937   7.477  -3.520  1.00  0.00     0.000 A 
ATOM     28  CZ  PHE A   2      12.384   8.252  -2.500  1.00  0.00     0.000 A 
ENDBRANCH  22  23
ENDBRANCH  10  22
ENDBRANCH   7  10
ENDBRANCH   5   6
BRANCH   5  29
ATOM     29  CB  LEU A   3      20.165  12.250  -5.215  1.00  0.00     0.038 C 
BRANCH  29  30
ATOM     30  CG  LEU A   3      20.410  11.677  -3.789  1.00  0.00    -0.015 C 
ATOM     31  CD1 LEU A   3      21.813  12.053  -3.312  1.00  0.00     0.007 C 
ATOM     32  CD2 LEU A   3      19.364  12.176  -2.782  1.00  0.00     0.007 C 
ENDBRANCH  29  30
ENDBRANCH   5  29
ENDBRANCH   1   5
BRANCH   3  33
ATOM     33  CA  ALA A   4      21.343   8.746  -8.158  1.00  0.00     0.168 C 
ATOM     34  CB  ALA A   4      20.666   8.004  -9.301  1.00  0.00     0.041 C 
BRANCH  33  35
ATOM     35  C   ALA A   4      22.710   9.199  -8.533  1.00  0.00     0.242 C 
ATOM     36  N   LYS A   5      23.817   8.714  -7.786  1.00  0.00    -0.343 N 
ATOM     37  O   ALA A   4      22.877  10.025  -9.471  1.00  0.00    -0.273 OA
ATOM     38  H   UNL     1      23.662   7.995  -7.042  1.00  0.00     0.164 HD
BRANCH  36  39
ATOM     39  CA  LYS A   5      25.180   9.125  -8.068  1.00  0.00     0.171 C 
BRANCH  39  40
ATOM     40  C   LYS A   5      25.900   7.973  -8.683  1.00  0.00     0.243 C 
ATOM     41  N   ASN A   6      25.915   7.870 -10.101  1.00  0.00    -0.341 N 
ATOM     42  O   LYS A   5      26.448   7.091  -7.968  1.00  0.00    -0.273 OA
ATOM     43  H   UNL     1      25.495   8.655 -10.650  1.00  0.00     0.164 HD
BRANCH  41  44
ATOM     44  CA  ASN A   6      26.542   6.753 -10.802  1.00  0.00     0.201 C 
BRANCH  44  45
ATOM     45  C   ASN A   6      27.993   6.643 -10.415  1.00  0.00     0.326 C 
ATOM     46  O   ASN A   6      28.795   7.579 -10.677  1.00  0.00    -0.250 OA
BRANCH  45  47
ATOM     47  OXT ASN A   6      28.451   5.499  -9.768  1.00  0.00    -0.480 OA
ATOM     48  H   UNL     1      29.423   5.408  -9.501  1.00  0.00     0.296 HD
ENDBRANCH  45  47
ENDBRANCH  44  45
BRANCH  44  49
ATOM     49  CB  ASN A   6      26.423   6.947 -12.322  1.00  0.00     0.136 C 
BRANCH  49  50
ATOM     50  CG  ASN A   6      25.009   7.182 -12.771  1.00  0.00     0.220 C 
ATOM     51  ND2 ASN A   6      24.753   8.089 -13.834  1.00  0.00    -0.370 N 
ATOM     52  OD1 ASN A   6      24.051   6.563 -12.237  1.00  0.00    -0.275 OA
ATOM     53  H   UNL     1      25.534   8.596 -14.309  1.00  0.00     0.159 HD
ATOM     54  H   UNL     1      23.775   8.258 -14.157  1.00  0.00     0.159 HD
ENDBRANCH  49  50
ENDBRANCH  44  49
ENDBRANCH  41  44
ENDBRANCH  39  40
BRANCH  39  55
ATOM     55  CB  LYS A   5      25.856   9.608  -6.788  1.00  0.00     0.035 C 
BRANCH  55  56
ATOM     56  CG  LYS A   5      25.178  10.871  -6.244  1.00  0.00     0.004 C 
BRANCH  56  57
ATOM     57  CD  LYS A   5      25.885  11.354  -4.973  1.00  0.00     0.015 C 
BRANCH  57  58
ATOM     58  CE  LYS A   5      25.438  12.768  -4.556  1.00  0.00     0.077 C 
BRANCH  58  59
ATOM     59  NZ  LYS A   5      26.163  13.812  -5.281  1.00  0.00    -0.330 NA
ATOM     60  H   UNL     1      27.188  13.698  -5.109  1.00  0.00     0.118 HD
ATOM     61  H   UNL     1      25.995  13.705  -6.307  1.00  0.00     0.118 HD
ENDBRANCH  58  59
ENDBRANCH  57  58
ENDBRANCH  56  57
ENDBRANCH  55  56
ENDBRANCH  39  55
ENDBRANCH  36  39
ENDBRANCH  33  35
ENDBRANCH   3  33
TORSDOF 26
