REMARK SMILES CC(C)C[C@H](NC(=O)[C@H](Cc1ccccc1)NC(=O)[C@@H](N)CO)C(=O)N[C@@H](CC(N)=O)C(=O)N[C@@H](Cc1c[nH]cn1)C(=O)N[C@@H](CC(N)=O)C(=O)O
REMARK SMILES IDX 24 1 25 2 26 3 5 5 6 6 7 7 8 8 9 10 17 11 18 12 19 13 20 15
REMARK SMILES IDX 21 16 22 19 23 20 10 22 11 23 12 24 16 25 13 26 15 27 14 28
REMARK SMILES IDX 4 29 2 30 1 31 3 32 27 33 32 34 34 35 33 36 35 38 42 39
REMARK SMILES IDX 44 40 43 41 45 43 50 44 51 45 52 46 46 48 47 49 48 50 49 51
REMARK SMILES IDX 36 54 37 55 41 56 38 57 40 58 39 59 28 61 29 62 30 63 31 64
REMARK H PARENT 26 4 6 9 17 14 21 17 21 18 23 21 34 37 44 42 52 47 48 52 48 53
REMARK H PARENT 39 60 30 65 30 66
ROOT
ATOM      1  C   LEU A   3      20.069  10.084  -6.443  1.00  0.00     0.243 C 
ATOM      2  O   LEU A   3      20.202   9.185  -5.569  1.00  0.00    -0.273 OA
ATOM      3  N   ASN A   4      20.569   9.901  -7.761  1.00  0.00    -0.342 N 
ATOM      4  H   UNL     1      20.401  10.638  -8.484  1.00  0.00     0.164 HD
ENDROOT
BRANCH   1   5
ATOM      5  CA  LEU A   3      19.338  11.340  -6.137  1.00  0.00     0.171 C 
BRANCH   5   6
ATOM      6  N   LEU A   3      18.088  11.026  -5.507  1.00  0.00    -0.343 N 
ATOM      7  C   PHE A   2      16.889  11.743  -5.766  1.00  0.00     0.243 C 
ATOM      8  O   PHE A   2      16.908  12.789  -6.473  1.00  0.00    -0.273 OA
ATOM      9  H   UNL     1      18.159  10.394  -4.689  1.00  0.00     0.164 HD
BRANCH   7  10
ATOM     10  CA  PHE A   2      15.650  11.311  -5.054  1.00  0.00     0.175 C 
BRANCH  10  11
ATOM     11  N   PHE A   2      14.455  11.739  -5.769  1.00  0.00    -0.343 N 
ATOM     12  C   SER A   1      13.915  13.049  -5.637  1.00  0.00     0.239 C 
ATOM     13  O   SER A   1      14.448  13.868  -4.839  1.00  0.00    -0.273 OA
ATOM     14  H   UNL     1      13.868  10.999  -6.211  1.00  0.00     0.164 HD
BRANCH  12  15
ATOM     15  CA  SER A   1      12.655  13.408  -6.387  1.00  0.00     0.167 C 
BRANCH  15  16
ATOM     16  N   SER A   1      12.467  14.861  -6.384  1.00  0.00    -0.318 NA
ATOM     17  H   UNL     1      11.582  15.087  -6.893  1.00  0.00     0.119 HD
ATOM     18  H   UNL     1      12.302  15.171  -5.398  1.00  0.00     0.119 HD
ENDBRANCH  15  16
BRANCH  15  19
ATOM     19  CB  SER A   1      12.699  12.894  -7.844  1.00  0.00     0.184 C 
BRANCH  19  20
ATOM     20  OG  SER A   1      11.440  13.041  -8.440  1.00  0.00    -0.394 OA
ATOM     21  H   UNL     1      11.549  12.780  -9.392  1.00  0.00     0.210 HD
ENDBRANCH  19  20
ENDBRANCH  15  19
ENDBRANCH  12  15
ENDBRANCH  10  11
BRANCH  10  22
ATOM     22  CB  PHE A   2      15.609   9.772  -4.881  1.00  0.00     0.070 C 
BRANCH  22  23
ATOM     23  CG  PHE A   2      14.435   9.291  -4.091  1.00  0.00    -0.045 A 
ATOM     24  CD1 PHE A   2      13.898  10.047  -3.032  1.00  0.00     0.004 A 
ATOM     25  CD2 PHE A   2      13.963   7.990  -4.310  1.00  0.00     0.004 A 
ATOM     26  CE1 PHE A   2      12.865   9.535  -2.258  1.00  0.00     0.000 A 
ATOM     27  CE2 PHE A   2      12.937   7.476  -3.520  1.00  0.00     0.000 A 
ATOM     28  CZ  PHE A   2      12.384   8.251  -2.500  1.00  0.00     0.000 A 
ENDBRANCH  22  23
ENDBRANCH  10  22
ENDBRANCH   7  10
ENDBRANCH   5   6
BRANCH   5  29
ATOM     29  CB  LEU A   3      20.157  12.341  -5.311  1.00  0.00     0.038 C 
BRANCH  29  30
ATOM     30  CG  LEU A   3      20.419  12.204  -3.784  1.00  0.00    -0.015 C 
ATOM     31  CD1 LEU A   3      21.804  11.752  -3.373  1.00  0.00     0.007 C 
ATOM     32  CD2 LEU A   3      19.286  11.888  -2.822  1.00  0.00     0.007 C 
ENDBRANCH  29  30
ENDBRANCH   5  29
ENDBRANCH   1   5
BRANCH   3  33
ATOM     33  CA  ASN A   4      21.347   8.739  -8.141  1.00  0.00     0.180 C 
BRANCH  33  34
ATOM     34  C   ASN A   4      22.710   9.200  -8.525  1.00  0.00     0.243 C 
ATOM     35  N   HIS A   5      23.820   8.725  -7.778  1.00  0.00    -0.342 N 
ATOM     36  O   ASN A   4      22.870  10.019  -9.472  1.00  0.00    -0.273 OA
ATOM     37  H   UNL     1      23.669   8.012  -7.027  1.00  0.00     0.164 HD
BRANCH  35  38
ATOM     38  CA  HIS A   5      25.180   9.131  -8.072  1.00  0.00     0.177 C 
BRANCH  38  39
ATOM     39  C   HIS A   5      25.898   7.974  -8.683  1.00  0.00     0.243 C 
ATOM     40  N   ASN A   6      25.912   7.867 -10.100  1.00  0.00    -0.340 N 
ATOM     41  O   HIS A   5      26.445   7.094  -7.965  1.00  0.00    -0.273 OA
ATOM     42  H   UNL     1      25.487   8.648 -10.651  1.00  0.00     0.164 HD
BRANCH  40  43
ATOM     43  CA  ASN A   6      26.543   6.753 -10.802  1.00  0.00     0.201 C 
BRANCH  43  44
ATOM     44  C   ASN A   6      27.993   6.644 -10.412  1.00  0.00     0.326 C 
ATOM     45  O   ASN A   6      28.795   7.579 -10.676  1.00  0.00    -0.250 OA
BRANCH  44  46
ATOM     46  OXT ASN A   6      28.449   5.503  -9.760  1.00  0.00    -0.480 OA
ATOM     47  H   UNL     1      29.421   5.413  -9.490  1.00  0.00     0.296 HD
ENDBRANCH  44  46
ENDBRANCH  43  44
BRANCH  43  48
ATOM     48  CB  ASN A   6      26.429   6.951 -12.322  1.00  0.00     0.136 C 
BRANCH  48  49
ATOM     49  CG  ASN A   6      25.017   7.181 -12.775  1.00  0.00     0.220 C 
ATOM     50  ND2 ASN A   6      24.757   8.092 -13.834  1.00  0.00    -0.370 N 
ATOM     51  OD1 ASN A   6      24.063   6.553 -12.248  1.00  0.00    -0.275 OA
ATOM     52  H   UNL     1      23.778   8.255 -14.158  1.00  0.00     0.159 HD
ATOM     53  H   UNL     1      25.535   8.606 -14.304  1.00  0.00     0.159 HD
ENDBRANCH  48  49
ENDBRANCH  43  48
ENDBRANCH  40  43
ENDBRANCH  38  39
BRANCH  38  54
ATOM     54  CB  HIS A   5      25.862   9.631  -6.800  1.00  0.00     0.093 C 
BRANCH  54  55
ATOM     55  CG  HIS A   5      25.222  10.864  -6.218  1.00  0.00     0.061 A 
ATOM     56  ND1 HIS A   5      25.511  11.294  -4.973  1.00  0.00    -0.242 NA
ATOM     57  CD2 HIS A   5      24.535  11.858  -6.894  1.00  0.00     0.107 A 
ATOM     58  CE1 HIS A   5      24.968  12.527  -4.910  1.00  0.00     0.196 A 
ATOM     59  NE2 HIS A   5      24.366  12.890  -6.056  1.00  0.00    -0.351 N 
ATOM     60  H   UNL     1      23.894  13.799  -6.260  1.00  0.00     0.167 HD
ENDBRANCH  54  55
ENDBRANCH  38  54
ENDBRANCH  35  38
ENDBRANCH  33  34
BRANCH  33  61
ATOM     61  CB  ASN A   4      20.646   7.993  -9.278  1.00  0.00     0.134 C 
BRANCH  61  62
ATOM     62  CG  ASN A   4      21.415   6.791  -9.756  1.00  0.00     0.220 C 
ATOM     63  ND2 ASN A   4      21.826   5.767  -8.849  1.00  0.00    -0.370 N 
ATOM     64  OD1 ASN A   4      21.642   6.656 -10.987  1.00  0.00    -0.275 OA
ATOM     65  H   UNL     1      21.560   5.798  -7.841  1.00  0.00     0.159 HD
ATOM     66  H   UNL     1      22.373   4.948  -9.197  1.00  0.00     0.159 HD
ENDBRANCH  61  62
ENDBRANCH  33  61
ENDBRANCH   3  33
TORSDOF 25
