REMARK SMILES CC(C)C[C@H](NC(=O)[C@H](Cc1ccccc1)NC(=O)[C@@H](N)CO)C(=O)N[C@@H](C)C(=O)N[C@@H](CCCNC(=N)N)C(=O)N[C@@H](Cc1c[nH]cn1)C(=O)O
REMARK SMILES IDX 24 1 25 2 26 3 5 5 6 6 7 7 8 8 9 10 17 11 18 12 19 13 20 15
REMARK SMILES IDX 21 16 22 19 23 20 10 22 11 23 12 24 16 25 13 26 15 27 14 28
REMARK SMILES IDX 4 29 2 30 1 31 3 32 27 33 28 34 29 35 31 36 30 37 32 39
REMARK SMILES IDX 40 40 42 41 41 42 43 44 50 45 51 46 52 47 44 49 45 50 49 51
REMARK SMILES IDX 46 52 48 53 47 54 33 56 34 57 35 58 36 59 37 60 39 61 38 65
REMARK H PARENT 26 4 6 9 17 14 21 17 21 18 23 21 31 38 42 43 52 48 47 55 36 62
REMARK H PARENT 39 63 39 64 38 66
ROOT
ATOM      1  C   LEU A   3      -1.282  -0.115  -0.221  1.00  0.00     0.243 C 
ATOM      2  O   LEU A   3      -1.146   0.899  -0.960  1.00  0.00    -0.273 OA
ATOM      3  N   ALA A   4      -0.391  -0.332   0.885  1.00  0.00    -0.343 N 
ATOM      4  H   UNL     1      -0.418  -1.259   1.366  1.00  0.00     0.164 HD
ENDROOT
BRANCH   1   5
ATOM      5  CA  LEU A   3      -2.356  -1.125  -0.526  1.00  0.00     0.171 C 
BRANCH   5   6
ATOM      6  N   LEU A   3      -3.610  -0.428  -0.832  1.00  0.00    -0.343 N 
ATOM      7  C   PHE A   2      -4.415   0.176   0.189  1.00  0.00     0.243 C 
ATOM      8  O   PHE A   2      -3.988   0.241   1.376  1.00  0.00    -0.273 OA
ATOM      9  H   UNL     1      -3.942  -0.373  -1.820  1.00  0.00     0.164 HD
BRANCH   7  10
ATOM     10  CA  PHE A   2      -5.748   0.775  -0.162  1.00  0.00     0.175 C 
BRANCH  10  11
ATOM     11  N   PHE A   2      -6.685   0.598   0.954  1.00  0.00    -0.343 N 
ATOM     12  C   SER A   1      -7.583  -0.515   1.038  1.00  0.00     0.239 C 
ATOM     13  O   SER A   1      -7.545  -1.430   0.170  1.00  0.00    -0.273 OA
ATOM     14  H   UNL     1      -6.627   1.254   1.766  1.00  0.00     0.164 HD
BRANCH  12  15
ATOM     15  CA  SER A   1      -8.549  -0.616   2.190  1.00  0.00     0.167 C 
BRANCH  15  16
ATOM     16  N   SER A   1      -9.875  -0.992   1.696  1.00  0.00    -0.318 NA
ATOM     17  H   UNL     1     -10.550  -0.952   2.492  1.00  0.00     0.119 HD
ATOM     18  H   UNL     1     -10.192  -0.262   1.020  1.00  0.00     0.119 HD
ENDBRANCH  15  16
BRANCH  15  19
ATOM     19  CB  SER A   1      -8.037  -1.652   3.204  1.00  0.00     0.184 C 
BRANCH  19  20
ATOM     20  OG  SER A   1      -8.858  -1.677   4.342  1.00  0.00    -0.394 OA
ATOM     21  H   UNL     1      -8.615  -0.884   4.885  1.00  0.00     0.210 HD
ENDBRANCH  19  20
ENDBRANCH  15  19
ENDBRANCH  12  15
ENDBRANCH  10  11
BRANCH  10  22
ATOM     22  CB  PHE A   2      -5.590   2.267  -0.501  1.00  0.00     0.070 C 
BRANCH  22  23
ATOM     23  CG  PHE A   2      -6.898   2.851  -0.972  1.00  0.00    -0.045 A 
ATOM     24  CD1 PHE A   2      -7.303   2.690  -2.308  1.00  0.00     0.004 A 
ATOM     25  CD2 PHE A   2      -7.757   3.496  -0.066  1.00  0.00     0.004 A 
ATOM     26  CE1 PHE A   2      -8.544   3.175  -2.732  1.00  0.00     0.000 A 
ATOM     27  CE2 PHE A   2      -9.000   3.975  -0.493  1.00  0.00     0.000 A 
ATOM     28  CZ  PHE A   2      -9.393   3.814  -1.824  1.00  0.00     0.000 A 
ENDBRANCH  22  23
ENDBRANCH  10  22
ENDBRANCH   7  10
ENDBRANCH   5   6
BRANCH   5  29
ATOM     29  CB  LEU A   3      -1.918  -2.032  -1.700  1.00  0.00     0.038 C 
BRANCH  29  30
ATOM     30  CG  LEU A   3      -2.600  -3.422  -1.693  1.00  0.00    -0.015 C 
ATOM     31  CD1 LEU A   3      -2.032  -4.292  -2.823  1.00  0.00     0.007 C 
ATOM     32  CD2 LEU A   3      -4.127  -3.331  -1.828  1.00  0.00     0.007 C 
ENDBRANCH  29  30
ENDBRANCH   5  29
ENDBRANCH   1   5
BRANCH   3  33
ATOM     33  CA  ALA A   4       0.669   0.614   1.248  1.00  0.00     0.168 C 
ATOM     34  CB  ALA A   4       0.851   0.598   2.771  1.00  0.00     0.041 C 
BRANCH  33  35
ATOM     35  C   ALA A   4       1.952   0.263   0.526  1.00  0.00     0.242 C 
ATOM     36  N   ARG A   5       3.203   0.853   0.927  1.00  0.00    -0.343 N 
ATOM     37  O   ALA A   4       1.912  -0.504  -0.475  1.00  0.00    -0.273 OA
ATOM     38  H   UNL     1       3.188   1.639   1.611  1.00  0.00     0.164 HD
BRANCH  36  39
ATOM     39  CA  ARG A   5       4.522   0.420   0.440  1.00  0.00     0.171 C 
BRANCH  39  40
ATOM     40  C   ARG A   5       4.761   0.867  -0.984  1.00  0.00     0.243 C 
ATOM     41  N   HIS A   6       6.058   0.703  -1.574  1.00  0.00    -0.341 N 
ATOM     42  O   ARG A   5       3.838   1.419  -1.642  1.00  0.00    -0.273 OA
ATOM     43  H   UNL     1       6.787   0.200  -1.019  1.00  0.00     0.164 HD
BRANCH  41  44
ATOM     44  CA  HIS A   6       6.500   1.464  -2.749  1.00  0.00     0.198 C 
BRANCH  44  45
ATOM     45  C   HIS A   6       7.331   0.606  -3.668  1.00  0.00     0.326 C 
ATOM     46  O   HIS A   6       7.902  -0.435  -3.241  1.00  0.00    -0.250 OA
BRANCH  45  47
ATOM     47  OXT HIS A   6       7.499   0.989  -4.995  1.00  0.00    -0.480 OA
ATOM     48  H   UNL     1       8.067   0.438  -5.628  1.00  0.00     0.296 HD
ENDBRANCH  45  47
ENDBRANCH  44  45
BRANCH  44  49
ATOM     49  CB  HIS A   6       7.272   2.725  -2.315  1.00  0.00     0.094 C 
BRANCH  49  50
ATOM     50  CG  HIS A   6       8.461   2.408  -1.451  1.00  0.00     0.061 A 
ATOM     51  ND1 HIS A   6       8.406   2.292  -0.108  1.00  0.00    -0.242 NA
ATOM     52  CD2 HIS A   6       9.731   2.109  -1.893  1.00  0.00     0.107 A 
ATOM     53  CE1 HIS A   6       9.660   1.934   0.239  1.00  0.00     0.196 A 
ATOM     54  NE2 HIS A   6      10.482   1.818  -0.821  1.00  0.00    -0.351 N 
ATOM     55  H   UNL     1      11.490   1.547  -0.812  1.00  0.00     0.167 HD
ENDBRANCH  49  50
ENDBRANCH  44  49
ENDBRANCH  41  44
ENDBRANCH  39  40
BRANCH  39  56
ATOM     56  CB  ARG A   5       4.737  -1.104   0.605  1.00  0.00     0.037 C 
BRANCH  56  57
ATOM     57  CG  ARG A   5       4.470  -1.629   2.029  1.00  0.00     0.024 C 
BRANCH  57  58
ATOM     58  CD  ARG A   5       5.321  -0.958   3.120  1.00  0.00     0.116 C 
BRANCH  58  59
ATOM     59  NE  ARG A   5       6.740  -0.923   2.760  1.00  0.00    -0.357 N 
ATOM     60  CZ  ARG A   5       7.573  -2.090   2.708  1.00  0.00     0.185 C 
ATOM     61  NH2 ARG A   5       8.937  -1.966   2.298  1.00  0.00    -0.370 N 
ATOM     62  H   UNL     1       7.177   0.008   2.573  1.00  0.00     0.163 HD
ATOM     63  H   UNL     1       9.560  -2.803   2.246  1.00  0.00     0.159 HD
ATOM     64  H   UNL     1       9.323  -1.034   2.032  1.00  0.00     0.159 HD
BRANCH  60  65
ATOM     65  NH1 ARG A   5       7.096  -3.251   3.029  1.00  0.00    -0.270 NA
ATOM     66  H   UNL     1       7.681  -4.115   2.999  1.00  0.00     0.191 HD
ENDBRANCH  60  65
ENDBRANCH  58  59
ENDBRANCH  57  58
ENDBRANCH  56  57
ENDBRANCH  39  56
ENDBRANCH  36  39
ENDBRANCH  33  35
ENDBRANCH   3  33
TORSDOF 26
