REMARK SMILES CC(C)C[C@H](NC(=O)[C@H](C)NC(=O)[C@H](CCC(N)=O)NC(=O)[C@@H](N)CO)C(=O)N[C@@H](CCCNC(=N)N)C(=O)N[C@@H](CC(N)=O)C(=O)O
REMARK SMILES IDX 7 1 8 2 6 3 9 5 10 6 11 7 12 8 13 9 14 11 20 12 21 13 22 14
REMARK SMILES IDX 23 16 24 17 25 20 26 21 15 23 16 24 17 25 18 26 19 27 5 30
REMARK SMILES IDX 27 31 29 32 28 33 30 35 38 36 40 37 39 38 41 40 46 41 47 42
REMARK SMILES IDX 48 43 42 45 43 46 44 47 45 48 31 51 32 52 33 53 34 54 35 55
REMARK SMILES IDX 37 56 36 60 4 62 2 63 1 64 3 65
REMARK H PARENT 6 4 11 10 20 15 24 18 24 19 26 22 18 28 18 29 29 34 40 39
REMARK H PARENT 48 44 44 49 44 50 34 57 37 58 37 59 36 61
ROOT
ATOM      1  C   ALA A   3      20.040  10.099  -6.459  1.00  0.00     0.242 C 
ATOM      2  O   ALA A   3      20.173   9.197  -5.585  1.00  0.00    -0.273 OA
ATOM      3  N   LEU A   4      20.559   9.922  -7.769  1.00  0.00    -0.343 N 
ATOM      4  H   UNL     1      20.390  10.659  -8.493  1.00  0.00     0.164 HD
ENDROOT
BRANCH   1   5
ATOM      5  CA  ALA A   3      19.330  11.370  -6.139  1.00  0.00     0.168 C 
ATOM      6  CB  ALA A   3      20.174  12.246  -5.222  1.00  0.00     0.041 C 
BRANCH   5   7
ATOM      7  N   ALA A   3      18.088  11.053  -5.476  1.00  0.00    -0.343 N 
ATOM      8  C   GLN A   2      16.878  11.748  -5.740  1.00  0.00     0.243 C 
ATOM      9  O   GLN A   2      16.887  12.785  -6.460  1.00  0.00    -0.273 OA
ATOM     10  H   UNL     1      18.182  10.544  -4.570  1.00  0.00     0.164 HD
BRANCH   8  11
ATOM     11  CA  GLN A   2      15.628  11.286  -5.043  1.00  0.00     0.171 C 
BRANCH  11  12
ATOM     12  N   GLN A   2      14.450  11.732  -5.769  1.00  0.00    -0.343 N 
ATOM     13  C   SER A   1      13.915  13.044  -5.634  1.00  0.00     0.239 C 
ATOM     14  O   SER A   1      14.447  13.859  -4.831  1.00  0.00    -0.273 OA
ATOM     15  H   UNL     1      13.893  11.010  -6.274  1.00  0.00     0.164 HD
BRANCH  13  16
ATOM     16  CA  SER A   1      12.661  13.410  -6.392  1.00  0.00     0.167 C 
BRANCH  16  17
ATOM     17  N   SER A   1      12.455  14.859  -6.399  1.00  0.00    -0.318 NA
ATOM     18  H   UNL     1      13.318  15.337  -6.751  1.00  0.00     0.119 HD
ATOM     19  H   UNL     1      12.284  15.185  -5.419  1.00  0.00     0.119 HD
ENDBRANCH  16  17
BRANCH  16  20
ATOM     20  CB  SER A   1      12.691  12.893  -7.847  1.00  0.00     0.184 C 
BRANCH  20  21
ATOM     21  OG  SER A   1      11.434  13.064  -8.438  1.00  0.00    -0.394 OA
ATOM     22  H   UNL     1      11.535  12.807  -9.391  1.00  0.00     0.210 HD
ENDBRANCH  20  21
ENDBRANCH  16  20
ENDBRANCH  13  16
ENDBRANCH  11  12
BRANCH  11  23
ATOM     23  CB  GLN A   2      15.590   9.741  -4.929  1.00  0.00     0.045 C 
BRANCH  23  24
ATOM     24  CG  GLN A   2      14.422   9.263  -4.067  1.00  0.00     0.102 C 
BRANCH  24  25
ATOM     25  CD  GLN A   2      14.404   7.765  -3.986  1.00  0.00     0.217 C 
ATOM     26  NE2 GLN A   2      13.811   6.993  -5.030  1.00  0.00    -0.370 N 
ATOM     27  OE1 GLN A   2      14.950   7.183  -3.011  1.00  0.00    -0.275 OA
ATOM     28  H   UNL     1      13.375   7.461  -5.856  1.00  0.00     0.159 HD
ATOM     29  H   UNL     1      13.811   5.951  -4.980  1.00  0.00     0.159 HD
ENDBRANCH  24  25
ENDBRANCH  23  24
ENDBRANCH  11  23
ENDBRANCH   8  11
ENDBRANCH   5   7
ENDBRANCH   1   5
BRANCH   3  30
ATOM     30  CA  LEU A   4      21.345   8.761  -8.135  1.00  0.00     0.171 C 
BRANCH  30  31
ATOM     31  C   LEU A   4      22.711   9.217  -8.518  1.00  0.00     0.243 C 
ATOM     32  N   ARG A   5      23.821   8.720  -7.784  1.00  0.00    -0.343 N 
ATOM     33  O   LEU A   4      22.875  10.032  -9.466  1.00  0.00    -0.273 OA
ATOM     34  H   UNL     1      23.666   8.029  -7.015  1.00  0.00     0.164 HD
BRANCH  32  35
ATOM     35  CA  ARG A   5      25.184   9.122  -8.073  1.00  0.00     0.171 C 
BRANCH  35  36
ATOM     36  C   ARG A   5      25.899   7.968  -8.685  1.00  0.00     0.243 C 
ATOM     37  N   ASN A   6      25.913   7.864 -10.102  1.00  0.00    -0.341 N 
ATOM     38  O   ARG A   5      26.447   7.087  -7.969  1.00  0.00    -0.273 OA
ATOM     39  H   UNL     1      25.489   8.647 -10.651  1.00  0.00     0.164 HD
BRANCH  37  40
ATOM     40  CA  ASN A   6      26.542   6.751 -10.804  1.00  0.00     0.201 C 
BRANCH  40  41
ATOM     41  C   ASN A   6      27.993   6.642 -10.416  1.00  0.00     0.326 C 
ATOM     42  O   ASN A   6      28.794   7.579 -10.677  1.00  0.00    -0.250 OA
BRANCH  41  43
ATOM     43  OXT ASN A   6      28.451   5.499  -9.768  1.00  0.00    -0.480 OA
ATOM     44  H   UNL     1      29.424   5.409  -9.499  1.00  0.00     0.296 HD
ENDBRANCH  41  43
ENDBRANCH  40  41
BRANCH  40  45
ATOM     45  CB  ASN A   6      26.424   6.947 -12.323  1.00  0.00     0.136 C 
BRANCH  45  46
ATOM     46  CG  ASN A   6      25.010   7.180 -12.773  1.00  0.00     0.220 C 
ATOM     47  ND2 ASN A   6      24.753   8.090 -13.833  1.00  0.00    -0.370 N 
ATOM     48  OD1 ASN A   6      24.053   6.558 -12.243  1.00  0.00    -0.275 OA
ATOM     49  H   UNL     1      23.774   8.258 -14.156  1.00  0.00     0.159 HD
ATOM     50  H   UNL     1      25.533   8.600 -14.306  1.00  0.00     0.159 HD
ENDBRANCH  45  46
ENDBRANCH  40  45
ENDBRANCH  37  40
ENDBRANCH  35  36
BRANCH  35  51
ATOM     51  CB  ARG A   5      25.862   9.605  -6.796  1.00  0.00     0.037 C 
BRANCH  51  52
ATOM     52  CG  ARG A   5      25.166  10.860  -6.270  1.00  0.00     0.024 C 
BRANCH  52  53
ATOM     53  CD  ARG A   5      25.842  11.390  -5.014  1.00  0.00     0.116 C 
BRANCH  53  54
ATOM     54  NE  ARG A   5      25.378  10.687  -3.820  1.00  0.00    -0.357 N 
ATOM     55  CZ  ARG A   5      25.470  11.282  -2.526  1.00  0.00     0.185 C 
ATOM     56  NH2 ARG A   5      26.109  12.546  -2.351  1.00  0.00    -0.370 N 
ATOM     57  H   UNL     1      24.899   9.761  -3.912  1.00  0.00     0.163 HD
ATOM     58  H   UNL     1      26.084  13.022  -1.422  1.00  0.00     0.159 HD
ATOM     59  H   UNL     1      26.699  12.981  -3.092  1.00  0.00     0.159 HD
BRANCH  55  60
ATOM     60  NH1 ARG A   5      24.956  10.671  -1.506  1.00  0.00    -0.270 NA
ATOM     61  H   UNL     1      24.999  11.075  -0.544  1.00  0.00     0.191 HD
ENDBRANCH  55  60
ENDBRANCH  53  54
ENDBRANCH  52  53
ENDBRANCH  51  52
ENDBRANCH  35  51
ENDBRANCH  32  35
ENDBRANCH  30  31
BRANCH  30  62
ATOM     62  CB  LEU A   4      20.653   7.999  -9.269  1.00  0.00     0.038 C 
BRANCH  62  63
ATOM     63  CG  LEU A   4      21.448   6.772  -9.767  1.00  0.00    -0.015 C 
ATOM     64  CD1 LEU A   4      21.762   5.779  -8.638  1.00  0.00     0.007 C 
ATOM     65  CD2 LEU A   4      20.662   6.068 -10.877  1.00  0.00     0.007 C 
ENDBRANCH  62  63
ENDBRANCH  30  62
ENDBRANCH   3  30
TORSDOF 27
