REMARK SMILES CC(C)C[C@H](NC(=O)CNC(=O)[C@@H](N)CO)C(=O)NCC(=O)N[C@@H](CCCNC(=N)N)C(=O)N[C@@H](CC(N)=O)C(=O)O
REMARK SMILES IDX 17 1 18 2 19 3 5 5 6 6 7 7 8 8 9 10 10 11 11 12 12 13 13 15
REMARK SMILES IDX 14 16 15 19 16 20 4 22 2 23 1 24 3 25 20 26 21 27 23 28
REMARK SMILES IDX 22 29 24 31 32 32 34 33 33 34 35 36 40 37 41 38 42 39 36 41
REMARK SMILES IDX 37 42 38 43 39 44 25 47 26 48 27 49 28 50 29 51 31 52 30 56
REMARK H PARENT 19 4 6 9 10 14 14 17 14 18 16 21 23 30 34 35 42 40 38 45 38 46
REMARK H PARENT 28 53 31 54 31 55 30 57
ROOT
ATOM      1  C   LEU A   3      20.047  10.064  -6.475  1.00  0.00     0.243 C 
ATOM      2  O   LEU A   3      20.180   9.138  -5.629  1.00  0.00    -0.273 OA
ATOM      3  N   GLY A   4      20.561   9.916  -7.788  1.00  0.00    -0.345 N 
ATOM      4  H   UNL     1      20.401  10.671  -8.494  1.00  0.00     0.164 HD
ENDROOT
BRANCH   1   5
ATOM      5  CA  LEU A   3      19.311  11.319  -6.131  1.00  0.00     0.171 C 
BRANCH   5   6
ATOM      6  N   LEU A   3      18.035  10.976  -5.538  1.00  0.00    -0.343 N 
ATOM      7  C   GLY A   2      16.868  11.756  -5.739  1.00  0.00     0.240 C 
ATOM      8  O   GLY A   2      16.905  12.806  -6.440  1.00  0.00    -0.273 OA
ATOM      9  H   UNL     1      17.989  10.182  -4.858  1.00  0.00     0.164 HD
BRANCH   7  10
ATOM     10  CA  GLY A   2      15.631  11.331  -5.023  1.00  0.00     0.216 C 
BRANCH  10  11
ATOM     11  N   GLY A   2      14.438  11.727  -5.743  1.00  0.00    -0.346 N 
ATOM     12  C   SER A   1      13.907  13.044  -5.632  1.00  0.00     0.239 C 
ATOM     13  O   SER A   1      14.447  13.871  -4.845  1.00  0.00    -0.273 OA
ATOM     14  H   UNL     1      13.854  10.961  -6.143  1.00  0.00     0.164 HD
BRANCH  12  15
ATOM     15  CA  SER A   1      12.651  13.406  -6.382  1.00  0.00     0.167 C 
BRANCH  15  16
ATOM     16  N   SER A   1      12.469  14.859  -6.387  1.00  0.00    -0.318 NA
ATOM     17  H   UNL     1      11.585  15.085  -6.900  1.00  0.00     0.119 HD
ATOM     18  H   UNL     1      12.302  15.175  -5.404  1.00  0.00     0.119 HD
ENDBRANCH  15  16
BRANCH  15  19
ATOM     19  CB  SER A   1      12.696  12.881  -7.836  1.00  0.00     0.184 C 
BRANCH  19  20
ATOM     20  OG  SER A   1      11.446  13.031  -8.451  1.00  0.00    -0.394 OA
ATOM     21  H   UNL     1      10.854  12.331  -8.070  1.00  0.00     0.210 HD
ENDBRANCH  19  20
ENDBRANCH  15  19
ENDBRANCH  12  15
ENDBRANCH  10  11
ENDBRANCH   7  10
ENDBRANCH   5   6
BRANCH   5  22
ATOM     22  CB  LEU A   3      20.133  12.234  -5.211  1.00  0.00     0.038 C 
BRANCH  22  23
ATOM     23  CG  LEU A   3      20.405  11.666  -3.791  1.00  0.00    -0.015 C 
ATOM     24  CD1 LEU A   3      21.806  12.070  -3.322  1.00  0.00     0.007 C 
ATOM     25  CD2 LEU A   3      19.353  12.143  -2.783  1.00  0.00     0.007 C 
ENDBRANCH  22  23
ENDBRANCH   5  22
ENDBRANCH   1   5
BRANCH   3  26
ATOM     26  CA  GLY A   4      21.332   8.760  -8.201  1.00  0.00     0.216 C 
BRANCH  26  27
ATOM     27  C   GLY A   4      22.706   9.206  -8.539  1.00  0.00     0.240 C 
ATOM     28  N   ARG A   5      23.806   8.709  -7.788  1.00  0.00    -0.343 N 
ATOM     29  O   GLY A   4      22.885  10.032  -9.475  1.00  0.00    -0.273 OA
ATOM     30  H   UNL     1      23.639   7.993  -7.045  1.00  0.00     0.164 HD
BRANCH  28  31
ATOM     31  CA  ARG A   5      25.174   9.114  -8.068  1.00  0.00     0.171 C 
BRANCH  31  32
ATOM     32  C   ARG A   5      25.896   7.965  -8.683  1.00  0.00     0.243 C 
ATOM     33  N   ASN A   6      25.914   7.866 -10.101  1.00  0.00    -0.341 N 
ATOM     34  O   ARG A   5      26.447   7.086  -7.969  1.00  0.00    -0.273 OA
ATOM     35  H   UNL     1      25.495   8.652 -10.649  1.00  0.00     0.164 HD
BRANCH  33  36
ATOM     36  CA  ASN A   6      26.543   6.752 -10.803  1.00  0.00     0.201 C 
BRANCH  36  37
ATOM     37  C   ASN A   6      27.993   6.642 -10.416  1.00  0.00     0.326 C 
ATOM     38  O   ASN A   6      28.795   7.579 -10.677  1.00  0.00    -0.250 OA
BRANCH  37  39
ATOM     39  OXT ASN A   6      28.452   5.499  -9.769  1.00  0.00    -0.480 OA
ATOM     40  H   UNL     1      29.425   5.409  -9.501  1.00  0.00     0.296 HD
ENDBRANCH  37  39
ENDBRANCH  36  37
BRANCH  36  41
ATOM     41  CB  ASN A   6      26.424   6.947 -12.323  1.00  0.00     0.136 C 
BRANCH  41  42
ATOM     42  CG  ASN A   6      25.010   7.182 -12.772  1.00  0.00     0.220 C 
ATOM     43  ND2 ASN A   6      24.754   8.089 -13.834  1.00  0.00    -0.370 N 
ATOM     44  OD1 ASN A   6      24.051   6.563 -12.238  1.00  0.00    -0.275 OA
ATOM     45  H   UNL     1      25.534   8.596 -14.309  1.00  0.00     0.159 HD
ATOM     46  H   UNL     1      23.775   8.257 -14.157  1.00  0.00     0.159 HD
ENDBRANCH  41  42
ENDBRANCH  36  41
ENDBRANCH  33  36
ENDBRANCH  31  32
BRANCH  31  47
ATOM     47  CB  ARG A   5      25.851   9.597  -6.790  1.00  0.00     0.037 C 
BRANCH  47  48
ATOM     48  CG  ARG A   5      25.162  10.858  -6.269  1.00  0.00     0.024 C 
BRANCH  48  49
ATOM     49  CD  ARG A   5      25.838  11.390  -5.014  1.00  0.00     0.116 C 
BRANCH  49  50
ATOM     50  NE  ARG A   5      25.377  10.686  -3.820  1.00  0.00    -0.357 N 
ATOM     51  CZ  ARG A   5      25.469  11.282  -2.526  1.00  0.00     0.185 C 
ATOM     52  NH2 ARG A   5      26.108  12.546  -2.352  1.00  0.00    -0.370 N 
ATOM     53  H   UNL     1      24.892   9.764  -3.911  1.00  0.00     0.163 HD
ATOM     54  H   UNL     1      26.080  13.024  -1.424  1.00  0.00     0.159 HD
ATOM     55  H   UNL     1      26.697  12.982  -3.094  1.00  0.00     0.159 HD
BRANCH  51  56
ATOM     56  NH1 ARG A   5      24.954  10.672  -1.506  1.00  0.00    -0.270 NA
ATOM     57  H   UNL     1      24.996  11.077  -0.545  1.00  0.00     0.191 HD
ENDBRANCH  51  56
ENDBRANCH  49  50
ENDBRANCH  48  49
ENDBRANCH  47  48
ENDBRANCH  31  47
ENDBRANCH  28  31
ENDBRANCH  26  27
ENDBRANCH   3  26
TORSDOF 24
