REMARK SMILES CC(C)C[C@H](NC(=O)[C@H](Cc1ccccc1)NC(=O)[C@@H](N)CO)C(=O)N[C@@H](CCCCN)C(=O)N[C@@H](Cc1c[nH]cn1)C(=O)N[C@@H](CC(N)=O)C(=O)O
REMARK SMILES IDX 24 1 25 2 26 3 5 5 6 6 7 7 8 8 9 10 17 11 18 12 19 13 20 15
REMARK SMILES IDX 21 16 22 19 23 20 10 22 11 23 12 24 16 25 13 26 15 27 14 28
REMARK SMILES IDX 4 29 2 30 1 31 3 32 27 33 33 34 35 35 34 36 36 38 43 39
REMARK SMILES IDX 45 40 44 41 46 43 51 44 52 45 53 46 47 48 48 49 49 50 50 51
REMARK SMILES IDX 37 54 38 55 42 56 39 57 41 58 40 59 28 61 29 62 30 63 31 64
REMARK SMILES IDX 32 65
REMARK H PARENT 26 4 6 9 17 14 21 17 21 18 23 21 35 37 45 42 53 47 49 52 49 53
REMARK H PARENT 40 60 32 66 32 67
ROOT
ATOM      1  C   LEU A   3      20.051  10.088  -6.476  1.00  0.00     0.243 C 
ATOM      2  O   LEU A   3      20.162   9.163  -5.623  1.00  0.00    -0.273 OA
ATOM      3  N   LYS A   4      20.565   9.921  -7.785  1.00  0.00    -0.343 N 
ATOM      4  H   UNL     1      20.401  10.661  -8.506  1.00  0.00     0.164 HD
ENDROOT
BRANCH   1   5
ATOM      5  CA  LEU A   3      19.339  11.356  -6.146  1.00  0.00     0.171 C 
BRANCH   5   6
ATOM      6  N   LEU A   3      18.082  11.023  -5.537  1.00  0.00    -0.343 N 
ATOM      7  C   PHE A   2      16.885  11.746  -5.776  1.00  0.00     0.243 C 
ATOM      8  O   PHE A   2      16.904  12.797  -6.475  1.00  0.00    -0.273 OA
ATOM      9  H   UNL     1      18.154  10.391  -4.715  1.00  0.00     0.164 HD
BRANCH   7  10
ATOM     10  CA  PHE A   2      15.651  11.314  -5.057  1.00  0.00     0.175 C 
BRANCH  10  11
ATOM     11  N   PHE A   2      14.455  11.740  -5.768  1.00  0.00    -0.343 N 
ATOM     12  C   SER A   1      13.914  13.049  -5.637  1.00  0.00     0.239 C 
ATOM     13  O   SER A   1      14.442  13.870  -4.836  1.00  0.00    -0.273 OA
ATOM     14  H   UNL     1      13.874  11.000  -6.219  1.00  0.00     0.164 HD
BRANCH  12  15
ATOM     15  CA  SER A   1      12.660  13.411  -6.390  1.00  0.00     0.167 C 
BRANCH  15  16
ATOM     16  N   SER A   1      12.475  14.863  -6.375  1.00  0.00    -0.318 NA
ATOM     17  H   UNL     1      11.521  15.090  -6.739  1.00  0.00     0.119 HD
ATOM     18  H   UNL     1      13.175  15.314  -7.009  1.00  0.00     0.119 HD
ENDBRANCH  15  16
BRANCH  15  19
ATOM     19  CB  SER A   1      12.688  12.878  -7.844  1.00  0.00     0.184 C 
BRANCH  19  20
ATOM     20  OG  SER A   1      11.436  13.047  -8.450  1.00  0.00    -0.394 OA
ATOM     21  H   UNL     1      11.447  13.936  -8.892  1.00  0.00     0.210 HD
ENDBRANCH  19  20
ENDBRANCH  15  19
ENDBRANCH  12  15
ENDBRANCH  10  11
BRANCH  10  22
ATOM     22  CB  PHE A   2      15.610   9.774  -4.880  1.00  0.00     0.070 C 
BRANCH  22  23
ATOM     23  CG  PHE A   2      14.435   9.292  -4.092  1.00  0.00    -0.045 A 
ATOM     24  CD1 PHE A   2      13.898  10.048  -3.033  1.00  0.00     0.004 A 
ATOM     25  CD2 PHE A   2      13.964   7.991  -4.310  1.00  0.00     0.004 A 
ATOM     26  CE1 PHE A   2      12.866   9.535  -2.258  1.00  0.00     0.000 A 
ATOM     27  CE2 PHE A   2      12.937   7.477  -3.520  1.00  0.00     0.000 A 
ATOM     28  CZ  PHE A   2      12.384   8.251  -2.500  1.00  0.00     0.000 A 
ENDBRANCH  22  23
ENDBRANCH  10  22
ENDBRANCH   7  10
ENDBRANCH   5   6
BRANCH   5  29
ATOM     29  CB  LEU A   3      20.164  12.252  -5.213  1.00  0.00     0.038 C 
BRANCH  29  30
ATOM     30  CG  LEU A   3      20.407  11.679  -3.787  1.00  0.00    -0.015 C 
ATOM     31  CD1 LEU A   3      21.809  12.052  -3.309  1.00  0.00     0.007 C 
ATOM     32  CD2 LEU A   3      19.361  12.179  -2.781  1.00  0.00     0.007 C 
ENDBRANCH  29  30
ENDBRANCH   5  29
ENDBRANCH   1   5
BRANCH   3  33
ATOM     33  CA  LYS A   4      21.349   8.759  -8.148  1.00  0.00     0.171 C 
BRANCH  33  34
ATOM     34  C   LYS A   4      22.714   9.216  -8.524  1.00  0.00     0.243 C 
ATOM     35  N   HIS A   5      23.822   8.736  -7.775  1.00  0.00    -0.342 N 
ATOM     36  O   LYS A   4      22.879  10.030  -9.473  1.00  0.00    -0.273 OA
ATOM     37  H   UNL     1      23.666   8.051  -7.000  1.00  0.00     0.164 HD
BRANCH  35  38
ATOM     38  CA  HIS A   5      25.184   9.135  -8.067  1.00  0.00     0.177 C 
BRANCH  38  39
ATOM     39  C   HIS A   5      25.898   7.976  -8.680  1.00  0.00     0.243 C 
ATOM     40  N   ASN A   6      25.911   7.868 -10.098  1.00  0.00    -0.340 N 
ATOM     41  O   HIS A   5      26.444   7.094  -7.963  1.00  0.00    -0.273 OA
ATOM     42  H   UNL     1      25.487   8.651 -10.648  1.00  0.00     0.164 HD
BRANCH  40  43
ATOM     43  CA  ASN A   6      26.539   6.752 -10.799  1.00  0.00     0.201 C 
BRANCH  43  44
ATOM     44  C   ASN A   6      27.993   6.642 -10.410  1.00  0.00     0.326 C 
ATOM     45  O   ASN A   6      28.791   7.579 -10.678  1.00  0.00    -0.250 OA
BRANCH  44  46
ATOM     46  OXT ASN A   6      28.469   5.510  -9.756  1.00  0.00    -0.480 OA
ATOM     47  H   UNL     1      27.857   4.738  -9.522  1.00  0.00     0.296 HD
ENDBRANCH  44  46
ENDBRANCH  43  44
BRANCH  43  48
ATOM     48  CB  ASN A   6      26.423   6.948 -12.319  1.00  0.00     0.136 C 
BRANCH  48  49
ATOM     49  CG  ASN A   6      25.010   7.181 -12.772  1.00  0.00     0.220 C 
ATOM     50  ND2 ASN A   6      24.754   8.090 -13.833  1.00  0.00    -0.370 N 
ATOM     51  OD1 ASN A   6      24.053   6.557 -12.244  1.00  0.00    -0.275 OA
ATOM     52  H   UNL     1      23.776   8.256 -14.158  1.00  0.00     0.159 HD
ATOM     53  H   UNL     1      25.534   8.600 -14.304  1.00  0.00     0.159 HD
ENDBRANCH  48  49
ENDBRANCH  43  48
ENDBRANCH  40  43
ENDBRANCH  38  39
BRANCH  38  54
ATOM     54  CB  HIS A   5      25.864   9.634  -6.792  1.00  0.00     0.093 C 
BRANCH  54  55
ATOM     55  CG  HIS A   5      25.196  10.861  -6.233  1.00  0.00     0.061 A 
ATOM     56  ND1 HIS A   5      24.457  11.733  -6.953  1.00  0.00    -0.242 NA
ATOM     57  CD2 HIS A   5      25.420  11.375  -4.976  1.00  0.00     0.107 A 
ATOM     58  CE1 HIS A   5      24.222  12.748  -6.097  1.00  0.00     0.196 A 
ATOM     59  NE2 HIS A   5      24.801  12.562  -4.896  1.00  0.00    -0.351 N 
ATOM     60  H   UNL     1      24.782  13.210  -4.078  1.00  0.00     0.167 HD
ENDBRANCH  54  55
ENDBRANCH  38  54
ENDBRANCH  35  38
ENDBRANCH  33  34
BRANCH  33  61
ATOM     61  CB  LYS A   4      20.657   7.994  -9.279  1.00  0.00     0.035 C 
BRANCH  61  62
ATOM     62  CG  LYS A   4      21.455   6.777  -9.772  1.00  0.00     0.004 C 
BRANCH  62  63
ATOM     63  CD  LYS A   4      21.770   5.770  -8.655  1.00  0.00     0.015 C 
BRANCH  63  64
ATOM     64  CE  LYS A   4      22.376   4.485  -9.238  1.00  0.00     0.077 C 
BRANCH  64  65
ATOM     65  NZ  LYS A   4      22.713   3.531  -8.184  1.00  0.00    -0.330 NA
ATOM     66  H   UNL     1      21.849   3.314  -7.636  1.00  0.00     0.118 HD
ATOM     67  H   UNL     1      23.400   3.975  -7.532  1.00  0.00     0.118 HD
ENDBRANCH  64  65
ENDBRANCH  63  64
ENDBRANCH  62  63
ENDBRANCH  61  62
ENDBRANCH  33  61
ENDBRANCH   3  33
TORSDOF 28
