REMARK SMILES C[C@H](NC(=O)[C@H](CC(N)=O)NC(=O)[C@H](Cc1ccccc1)NC(=O)[C@@H](N)CO)C(=O)N[C@@H](CCCNC(=N)N)C(=O)N[C@@H](CC(N)=O)C(=O)O
REMARK SMILES IDX 4 1 5 2 3 3 6 5 11 6 12 7 13 8 14 10 22 11 23 12 24 13 25 15
REMARK SMILES IDX 26 16 27 19 28 20 15 22 16 23 17 24 21 25 18 26 20 27 19 28
REMARK SMILES IDX 7 29 8 30 9 31 10 32 2 35 1 36 29 37 31 38 30 39 32 41 40 42
REMARK SMILES IDX 42 43 41 44 43 46 48 47 49 48 50 49 44 51 45 52 46 53 47 54
REMARK SMILES IDX 33 57 34 58 35 59 36 60 37 61 39 62 38 66
REMARK H PARENT 3 4 11 9 22 14 26 17 26 18 28 21 9 33 9 34 31 40 42 45 50 50
REMARK H PARENT 46 55 46 56 36 63 39 64 39 65 38 67
ROOT
ATOM      1  C   ASN A   3      20.054  10.090  -6.461  1.00  0.00     0.243 C 
ATOM      2  O   ASN A   3      20.177   9.180  -5.595  1.00  0.00    -0.273 OA
ATOM      3  N   ALA A   4      20.558   9.910  -7.776  1.00  0.00    -0.343 N 
ATOM      4  H   UNL     1      20.390  10.649  -8.497  1.00  0.00     0.164 HD
ENDROOT
BRANCH   1   5
ATOM      5  CA  ASN A   3      19.349  11.364  -6.133  1.00  0.00     0.180 C 
BRANCH   5   6
ATOM      6  N   ASN A   3      18.090  11.041  -5.511  1.00  0.00    -0.342 N 
ATOM      7  C   PHE A   2      16.889  11.749  -5.774  1.00  0.00     0.243 C 
ATOM      8  O   PHE A   2      16.905  12.793  -6.482  1.00  0.00    -0.273 OA
ATOM      9  H   UNL     1      18.166  10.478  -4.638  1.00  0.00     0.164 HD
BRANCH   7  10
ATOM     10  CA  PHE A   2      15.653  11.314  -5.059  1.00  0.00     0.175 C 
BRANCH  10  11
ATOM     11  N   PHE A   2      14.456  11.741  -5.769  1.00  0.00    -0.343 N 
ATOM     12  C   SER A   1      13.916  13.051  -5.637  1.00  0.00     0.239 C 
ATOM     13  O   SER A   1      14.444  13.870  -4.836  1.00  0.00    -0.273 OA
ATOM     14  H   UNL     1      13.868  11.001  -6.211  1.00  0.00     0.164 HD
BRANCH  12  15
ATOM     15  CA  SER A   1      12.662  13.410  -6.389  1.00  0.00     0.167 C 
BRANCH  15  16
ATOM     16  N   SER A   1      12.472  14.862  -6.376  1.00  0.00    -0.318 NA
ATOM     17  H   UNL     1      13.202  15.317  -6.972  1.00  0.00     0.119 HD
ATOM     18  H   UNL     1      11.539  15.087  -6.793  1.00  0.00     0.119 HD
ENDBRANCH  15  16
BRANCH  15  19
ATOM     19  CB  SER A   1      12.687  12.879  -7.844  1.00  0.00     0.184 C 
BRANCH  19  20
ATOM     20  OG  SER A   1      11.437  13.048  -8.451  1.00  0.00    -0.394 OA
ATOM     21  H   UNL     1      10.831  12.368  -8.053  1.00  0.00     0.210 HD
ENDBRANCH  19  20
ENDBRANCH  15  19
ENDBRANCH  12  15
ENDBRANCH  10  11
BRANCH  10  22
ATOM     22  CB  PHE A   2      15.613   9.774  -4.889  1.00  0.00     0.070 C 
BRANCH  22  23
ATOM     23  CG  PHE A   2      14.442   9.290  -4.091  1.00  0.00    -0.045 A 
ATOM     24  CD1 PHE A   2      13.902  10.047  -3.033  1.00  0.00     0.004 A 
ATOM     25  CD2 PHE A   2      13.968   7.990  -4.310  1.00  0.00     0.004 A 
ATOM     26  CE1 PHE A   2      12.868   9.536  -2.260  1.00  0.00     0.000 A 
ATOM     27  CE2 PHE A   2      12.939   7.477  -3.521  1.00  0.00     0.000 A 
ATOM     28  CZ  PHE A   2      12.386   8.253  -2.502  1.00  0.00     0.000 A 
ENDBRANCH  22  23
ENDBRANCH  10  22
ENDBRANCH   7  10
ENDBRANCH   5   6
BRANCH   5  29
ATOM     29  CB  ASN A   3      20.179  12.261  -5.203  1.00  0.00     0.134 C 
BRANCH  29  30
ATOM     30  CG  ASN A   3      20.418  11.672  -3.835  1.00  0.00     0.220 C 
ATOM     31  ND2 ASN A   3      19.494  11.907  -2.772  1.00  0.00    -0.370 N 
ATOM     32  OD1 ASN A   3      21.441  10.965  -3.628  1.00  0.00    -0.275 OA
ATOM     33  H   UNL     1      18.640  12.487  -2.927  1.00  0.00     0.159 HD
ATOM     34  H   UNL     1      19.660  11.493  -1.829  1.00  0.00     0.159 HD
ENDBRANCH  29  30
ENDBRANCH   5  29
ENDBRANCH   1   5
BRANCH   3  35
ATOM     35  CA  ALA A   4      21.339   8.747  -8.150  1.00  0.00     0.168 C 
ATOM     36  CB  ALA A   4      20.663   8.005  -9.293  1.00  0.00     0.041 C 
BRANCH  35  37
ATOM     37  C   ALA A   4      22.707   9.199  -8.528  1.00  0.00     0.242 C 
ATOM     38  N   ARG A   5      23.816   8.706  -7.790  1.00  0.00    -0.343 N 
ATOM     39  O   ALA A   4      22.873  10.026  -9.467  1.00  0.00    -0.273 OA
ATOM     40  H   UNL     1      23.662   7.983  -7.049  1.00  0.00     0.164 HD
BRANCH  38  41
ATOM     41  CA  ARG A   5      25.180   9.117  -8.072  1.00  0.00     0.171 C 
BRANCH  41  42
ATOM     42  C   ARG A   5      25.901   7.967  -8.686  1.00  0.00     0.243 C 
ATOM     43  N   ASN A   6      25.916   7.866 -10.103  1.00  0.00    -0.341 N 
ATOM     44  O   ARG A   5      26.449   7.087  -7.970  1.00  0.00    -0.273 OA
ATOM     45  H   UNL     1      25.496   8.651 -10.651  1.00  0.00     0.164 HD
BRANCH  43  46
ATOM     46  CA  ASN A   6      26.543   6.751 -10.804  1.00  0.00     0.201 C 
BRANCH  46  47
ATOM     47  C   ASN A   6      27.994   6.642 -10.417  1.00  0.00     0.326 C 
ATOM     48  O   ASN A   6      28.795   7.579 -10.677  1.00  0.00    -0.250 OA
BRANCH  47  49
ATOM     49  OXT ASN A   6      28.453   5.497  -9.772  1.00  0.00    -0.480 OA
ATOM     50  H   UNL     1      29.426   5.407  -9.504  1.00  0.00     0.296 HD
ENDBRANCH  47  49
ENDBRANCH  46  47
BRANCH  46  51
ATOM     51  CB  ASN A   6      26.424   6.946 -12.323  1.00  0.00     0.136 C 
BRANCH  51  52
ATOM     52  CG  ASN A   6      25.009   7.181 -12.772  1.00  0.00     0.220 C 
ATOM     53  ND2 ASN A   6      24.753   8.089 -13.834  1.00  0.00    -0.370 N 
ATOM     54  OD1 ASN A   6      24.051   6.563 -12.238  1.00  0.00    -0.275 OA
ATOM     55  H   UNL     1      23.775   8.258 -14.156  1.00  0.00     0.159 HD
ATOM     56  H   UNL     1      25.533   8.595 -14.309  1.00  0.00     0.159 HD
ENDBRANCH  51  52
ENDBRANCH  46  51
ENDBRANCH  43  46
ENDBRANCH  41  42
BRANCH  41  57
ATOM     57  CB  ARG A   5      25.855   9.600  -6.793  1.00  0.00     0.037 C 
BRANCH  57  58
ATOM     58  CG  ARG A   5      25.163  10.858  -6.270  1.00  0.00     0.024 C 
BRANCH  58  59
ATOM     59  CD  ARG A   5      25.839  11.389  -5.014  1.00  0.00     0.116 C 
BRANCH  59  60
ATOM     60  NE  ARG A   5      25.376  10.687  -3.820  1.00  0.00    -0.357 N 
ATOM     61  CZ  ARG A   5      25.469  11.282  -2.527  1.00  0.00     0.185 C 
ATOM     62  NH2 ARG A   5      26.109  12.545  -2.352  1.00  0.00    -0.370 N 
ATOM     63  H   UNL     1      24.893   9.763  -3.911  1.00  0.00     0.163 HD
ATOM     64  H   UNL     1      26.698  12.981  -3.094  1.00  0.00     0.159 HD
ATOM     65  H   UNL     1      26.084  13.022  -1.423  1.00  0.00     0.159 HD
BRANCH  61  66
ATOM     66  NH1 ARG A   5      24.955  10.672  -1.506  1.00  0.00    -0.270 NA
ATOM     67  H   UNL     1      24.998  11.076  -0.544  1.00  0.00     0.191 HD
ENDBRANCH  61  66
ENDBRANCH  59  60
ENDBRANCH  58  59
ENDBRANCH  57  58
ENDBRANCH  41  57
ENDBRANCH  38  41
ENDBRANCH  35  37
ENDBRANCH   3  35
TORSDOF 26
