REMARK SMILES CC(C)C[C@H](NC(=O)[C@H](CO)NC(=O)[C@H](Cc1ccccc1)NC(=O)[C@@H](N)CO)C(=O)N[C@@H](CCCNC(=N)N)C(=O)N[C@@H](CO)C(=O)O
REMARK SMILES IDX 7 1 8 2 6 3 9 5 12 6 13 7 14 8 15 10 23 11 24 12 25 13 26 15
REMARK SMILES IDX 27 16 28 19 29 20 16 22 17 23 18 24 22 25 19 26 21 27 20 28
REMARK SMILES IDX 10 29 11 30 5 32 30 33 32 34 31 35 33 37 41 38 43 39 42 40
REMARK SMILES IDX 44 42 47 43 48 44 49 45 45 47 46 48 34 50 35 51 36 52 37 53
REMARK SMILES IDX 38 54 40 55 39 59 4 61 2 62 1 63 3 64
REMARK H PARENT 6 4 12 9 23 14 27 17 27 18 29 21 11 31 32 36 43 41 49 46 46 49
REMARK H PARENT 37 56 40 57 40 58 39 60
ROOT
ATOM      1  C   SER A   3       0.716   0.031   0.030  1.00  0.00     0.245 C 
ATOM      2  O   SER A   3       0.533   0.382  -1.168  1.00  0.00    -0.273 OA
ATOM      3  N   LEU A   4      -0.215  -0.855   0.670  1.00  0.00    -0.342 N 
ATOM      4  H   UNL     1      -0.073  -1.077   1.681  1.00  0.00     0.164 HD
ENDROOT
BRANCH   1   5
ATOM      5  CA  SER A   3       1.871   0.602   0.809  1.00  0.00     0.197 C 
BRANCH   5   6
ATOM      6  N   SER A   3       3.072   0.639  -0.030  1.00  0.00    -0.340 N 
ATOM      7  C   PHE A   2       4.205  -0.219   0.187  1.00  0.00     0.243 C 
ATOM      8  O   PHE A   2       4.163  -1.123   1.067  1.00  0.00    -0.273 OA
ATOM      9  H   UNL     1       3.093   1.302  -0.839  1.00  0.00     0.164 HD
BRANCH   7  10
ATOM     10  CA  PHE A   2       5.448  -0.052  -0.644  1.00  0.00     0.175 C 
BRANCH  10  11
ATOM     11  N   PHE A   2       6.616   0.041   0.238  1.00  0.00    -0.343 N 
ATOM     12  C   SER A   1       7.435   1.219   0.334  1.00  0.00     0.239 C 
ATOM     13  O   SER A   1       7.119   2.268  -0.293  1.00  0.00    -0.273 OA
ATOM     14  H   UNL     1       6.876  -0.798   0.803  1.00  0.00     0.164 HD
BRANCH  12  15
ATOM     15  CA  SER A   1       8.706   1.190   1.149  1.00  0.00     0.167 C 
BRANCH  15  16
ATOM     16  N   SER A   1       9.877   1.224   0.272  1.00  0.00    -0.318 NA
ATOM     17  H   UNL     1       9.823   2.058  -0.356  1.00  0.00     0.119 HD
ATOM     18  H   UNL     1       9.860   0.374  -0.339  1.00  0.00     0.119 HD
ENDBRANCH  15  16
BRANCH  15  19
ATOM     19  CB  SER A   1       8.762   2.359   2.141  1.00  0.00     0.184 C 
BRANCH  19  20
ATOM     20  OG  SER A   1       7.688   2.279   3.038  1.00  0.00    -0.394 OA
ATOM     21  H   UNL     1       7.775   3.062   3.643  1.00  0.00     0.210 HD
ENDBRANCH  19  20
ENDBRANCH  15  19
ENDBRANCH  12  15
ENDBRANCH  10  11
BRANCH  10  22
ATOM     22  CB  PHE A   2       5.610  -1.234  -1.613  1.00  0.00     0.070 C 
BRANCH  22  23
ATOM     23  CG  PHE A   2       6.798  -1.024  -2.519  1.00  0.00    -0.045 A 
ATOM     24  CD1 PHE A   2       6.669  -0.250  -3.684  1.00  0.00     0.004 A 
ATOM     25  CD2 PHE A   2       8.060  -1.532  -2.167  1.00  0.00     0.004 A 
ATOM     26  CE1 PHE A   2       7.782  -0.004  -4.493  1.00  0.00     0.000 A 
ATOM     27  CE2 PHE A   2       9.171  -1.283  -2.977  1.00  0.00     0.000 A 
ATOM     28  CZ  PHE A   2       9.032  -0.520  -4.140  1.00  0.00     0.000 A 
ENDBRANCH  22  23
ENDBRANCH  10  22
ENDBRANCH   7  10
ENDBRANCH   5   6
BRANCH   5  29
ATOM     29  CB  SER A   3       1.541   2.018   1.303  1.00  0.00     0.191 C 
BRANCH  29  30
ATOM     30  OG  SER A   3       0.423   2.008   2.150  1.00  0.00    -0.394 OA
ATOM     31  H   UNL     1       0.707   1.555   2.989  1.00  0.00     0.210 HD
ENDBRANCH  29  30
ENDBRANCH   5  29
ENDBRANCH   1   5
BRANCH   3  32
ATOM     32  CA  LEU A   4      -1.433  -1.321  -0.002  1.00  0.00     0.171 C 
BRANCH  32  33
ATOM     33  C   LEU A   4      -2.476  -0.236   0.053  1.00  0.00     0.243 C 
ATOM     34  N   ARG A   5      -3.314   0.015  -1.084  1.00  0.00    -0.343 N 
ATOM     35  O   LEU A   4      -2.641   0.417   1.120  1.00  0.00    -0.273 OA
ATOM     36  H   UNL     1      -3.202  -0.590  -1.929  1.00  0.00     0.164 HD
BRANCH  34  37
ATOM     37  CA  ARG A   5      -4.467   0.917  -1.021  1.00  0.00     0.171 C 
BRANCH  37  38
ATOM     38  C   ARG A   5      -5.639   0.150  -0.459  1.00  0.00     0.243 C 
ATOM     39  N   SER A   6      -5.977   0.272   0.931  1.00  0.00    -0.339 N 
ATOM     40  O   ARG A   5      -6.268  -0.659  -1.194  1.00  0.00    -0.273 OA
ATOM     41  H   UNL     1      -5.404   0.917   1.522  1.00  0.00     0.164 HD
BRANCH  39  42
ATOM     42  CA  SER A   6      -6.918  -0.633   1.599  1.00  0.00     0.218 C 
BRANCH  42  43
ATOM     43  C   SER A   6      -7.672   0.107   2.666  1.00  0.00     0.328 C 
ATOM     44  O   SER A   6      -7.052   0.692   3.596  1.00  0.00    -0.250 OA
BRANCH  43  45
ATOM     45  OXT SER A   6      -9.061   0.142   2.631  1.00  0.00    -0.480 OA
ATOM     46  H   UNL     1      -9.587   0.639   3.340  1.00  0.00     0.296 HD
ENDBRANCH  43  45
ENDBRANCH  42  43
BRANCH  42  47
ATOM     47  CB  SER A   6      -6.166  -1.827   2.209  1.00  0.00     0.193 C 
BRANCH  47  48
ATOM     48  OG  SER A   6      -5.587  -2.615   1.203  1.00  0.00    -0.394 OA
ATOM     49  H   UNL     1      -6.323  -3.151   0.806  1.00  0.00     0.210 HD
ENDBRANCH  47  48
ENDBRANCH  42  47
ENDBRANCH  39  42
ENDBRANCH  37  38
BRANCH  37  50
ATOM     50  CB  ARG A   5      -4.756   1.500  -2.424  1.00  0.00     0.037 C 
BRANCH  50  51
ATOM     51  CG  ARG A   5      -5.540   2.828  -2.418  1.00  0.00     0.024 C 
BRANCH  51  52
ATOM     52  CD  ARG A   5      -6.999   2.695  -1.952  1.00  0.00     0.116 C 
BRANCH  52  53
ATOM     53  NE  ARG A   5      -7.127   2.874  -0.504  1.00  0.00    -0.357 N 
ATOM     54  CZ  ARG A   5      -8.394   2.784   0.162  1.00  0.00     0.185 C 
ATOM     55  NH2 ARG A   5      -8.491   3.118   1.547  1.00  0.00    -0.370 N 
ATOM     56  H   UNL     1      -6.289   3.128   0.067  1.00  0.00     0.163 HD
ATOM     57  H   UNL     1      -7.642   3.413   2.080  1.00  0.00     0.159 HD
ATOM     58  H   UNL     1      -9.404   3.069   2.052  1.00  0.00     0.159 HD
BRANCH  54  59
ATOM     59  NH1 ARG A   5      -9.448   2.399  -0.488  1.00  0.00    -0.270 NA
ATOM     60  H   UNL     1     -10.381   2.322  -0.026  1.00  0.00     0.191 HD
ENDBRANCH  54  59
ENDBRANCH  52  53
ENDBRANCH  51  52
ENDBRANCH  50  51
ENDBRANCH  37  50
ENDBRANCH  34  37
ENDBRANCH  32  33
BRANCH  32  61
ATOM     61  CB  LEU A   4      -1.983  -2.602   0.665  1.00  0.00     0.038 C 
BRANCH  61  62
ATOM     62  CG  LEU A   4      -1.235  -3.895   0.259  1.00  0.00    -0.015 C 
ATOM     63  CD1 LEU A   4      -1.974  -5.115   0.829  1.00  0.00     0.007 C 
ATOM     64  CD2 LEU A   4       0.225  -3.907   0.734  1.00  0.00     0.007 C 
ENDBRANCH  61  62
ENDBRANCH  32  61
ENDBRANCH   3  32
TORSDOF 28
