REMARK SMILES CC(C)C[C@H](NC(=O)[C@H](CCCCN)NC(=O)[C@@H](N)CO)C(=O)N[C@H](C(=O)N[C@@H](CCCNC(=N)N)C(=O)N[C@@H](CC(N)=O)C(=O)O)C(C)C
REMARK SMILES IDX 22 1 23 2 24 3 5 5 6 6 7 7 8 8 9 10 15 11 16 12 17 13 18 15
REMARK SMILES IDX 19 16 20 19 21 20 10 22 11 23 12 24 13 25 14 26 4 29 2 30
REMARK SMILES IDX 1 31 3 32 25 33 26 34 28 35 27 36 29 38 37 39 39 40 38 41
REMARK SMILES IDX 40 43 45 44 46 45 47 46 41 48 42 49 43 50 44 51 30 54 31 55
REMARK SMILES IDX 32 56 33 57 34 58 36 59 35 63 48 65 49 66 50 67
REMARK H PARENT 24 4 6 9 15 14 19 17 19 18 21 21 14 27 14 28 28 37 39 42 47 47
REMARK H PARENT 43 52 43 53 33 60 36 61 36 62 35 64
ROOT
ATOM      1  C   LEU A   3       1.209  -0.233  -1.854  1.00  0.00     0.243 C 
ATOM      2  O   LEU A   3       1.260   1.027  -1.909  1.00  0.00    -0.273 OA
ATOM      3  N   VAL A   4      -0.029  -0.905  -2.153  1.00  0.00    -0.342 N 
ATOM      4  H   UNL     1      -0.091  -1.938  -2.001  1.00  0.00     0.164 HD
ENDROOT
BRANCH   1   5
ATOM      5  CA  LEU A   3       2.470  -1.031  -1.573  1.00  0.00     0.171 C 
BRANCH   5   6
ATOM      6  N   LEU A   3       3.606  -0.157  -1.242  1.00  0.00    -0.343 N 
ATOM      7  C   LYS A   2       4.972  -0.556  -1.430  1.00  0.00     0.243 C 
ATOM      8  O   LYS A   2       5.237  -1.679  -1.943  1.00  0.00    -0.273 OA
ATOM      9  H   UNL     1       3.435   0.807  -0.877  1.00  0.00     0.164 HD
BRANCH   7  10
ATOM     10  CA  LYS A   2       6.081   0.418  -1.102  1.00  0.00     0.171 C 
BRANCH  10  11
ATOM     11  N   LYS A   2       5.842   1.031   0.211  1.00  0.00    -0.343 N 
ATOM     12  C   SER A   1       6.245   2.370   0.525  1.00  0.00     0.239 C 
ATOM     13  O   SER A   1       6.810   3.086  -0.351  1.00  0.00    -0.273 OA
ATOM     14  H   UNL     1       5.394   0.453   0.956  1.00  0.00     0.164 HD
BRANCH  12  15
ATOM     15  CA  SER A   1       5.970   2.943   1.896  1.00  0.00     0.167 C 
BRANCH  15  16
ATOM     16  N   SER A   1       7.202   3.452   2.509  1.00  0.00    -0.318 NA
ATOM     17  H   UNL     1       7.872   2.656   2.622  1.00  0.00     0.119 HD
ATOM     18  H   UNL     1       7.649   4.159   1.883  1.00  0.00     0.119 HD
ENDBRANCH  15  16
BRANCH  15  19
ATOM     19  CB  SER A   1       4.919   4.058   1.806  1.00  0.00     0.184 C 
BRANCH  19  20
ATOM     20  OG  SER A   1       4.619   4.532   3.090  1.00  0.00    -0.394 OA
ATOM     21  H   UNL     1       3.933   5.239   2.972  1.00  0.00     0.210 HD
ENDBRANCH  19  20
ENDBRANCH  15  19
ENDBRANCH  12  15
ENDBRANCH  10  11
BRANCH  10  22
ATOM     22  CB  LYS A   2       7.497  -0.198  -1.163  1.00  0.00     0.035 C 
BRANCH  22  23
ATOM     23  CG  LYS A   2       7.774  -1.224  -0.050  1.00  0.00     0.004 C 
BRANCH  23  24
ATOM     24  CD  LYS A   2       9.197  -1.784  -0.169  1.00  0.00     0.015 C 
BRANCH  24  25
ATOM     25  CE  LYS A   2       9.515  -2.800   0.935  1.00  0.00     0.077 C 
BRANCH  25  26
ATOM     26  NZ  LYS A   2       8.690  -3.995   0.798  1.00  0.00    -0.330 NA
ATOM     27  H   UNL     1       8.983  -4.498  -0.069  1.00  0.00     0.118 HD
ATOM     28  H   UNL     1       8.915  -4.631   1.599  1.00  0.00     0.118 HD
ENDBRANCH  25  26
ENDBRANCH  24  25
ENDBRANCH  23  24
ENDBRANCH  22  23
ENDBRANCH  10  22
ENDBRANCH   7  10
ENDBRANCH   5   6
BRANCH   5  29
ATOM     29  CB  LEU A   3       2.282  -2.125  -0.489  1.00  0.00     0.038 C 
BRANCH  29  30
ATOM     30  CG  LEU A   3       1.608  -1.675   0.835  1.00  0.00    -0.015 C 
ATOM     31  CD1 LEU A   3       2.503  -0.734   1.654  1.00  0.00     0.007 C 
ATOM     32  CD2 LEU A   3       1.253  -2.913   1.674  1.00  0.00     0.007 C 
ENDBRANCH  29  30
ENDBRANCH   5  29
ENDBRANCH   1   5
BRANCH   3  33
ATOM     33  CA  VAL A   4      -1.158  -0.204  -2.777  1.00  0.00     0.174 C 
BRANCH  33  34
ATOM     34  C   VAL A   4      -1.835   0.662  -1.741  1.00  0.00     0.243 C 
ATOM     35  N   ARG A   5      -2.692   0.092  -0.737  1.00  0.00    -0.343 N 
ATOM     36  O   VAL A   4      -1.601   1.903  -1.736  1.00  0.00    -0.273 OA
ATOM     37  H   UNL     1      -2.699  -0.949  -0.623  1.00  0.00     0.164 HD
BRANCH  35  38
ATOM     38  CA  ARG A   5      -3.547   0.921   0.123  1.00  0.00     0.171 C 
BRANCH  38  39
ATOM     39  C   ARG A   5      -4.115   0.079   1.244  1.00  0.00     0.243 C 
ATOM     40  N   ASN A   6      -5.067  -0.963   0.972  1.00  0.00    -0.341 N 
ATOM     41  O   ARG A   5      -3.700   0.266   2.422  1.00  0.00    -0.273 OA
ATOM     42  H   UNL     1      -5.350  -1.111  -0.019  1.00  0.00     0.164 HD
BRANCH  40  43
ATOM     43  CA  ASN A   6      -5.414  -1.991   1.965  1.00  0.00     0.201 C 
BRANCH  43  44
ATOM     44  C   ASN A   6      -6.105  -3.163   1.315  1.00  0.00     0.326 C 
ATOM     45  O   ASN A   6      -6.994  -2.980   0.439  1.00  0.00    -0.250 OA
BRANCH  44  46
ATOM     46  OXT ASN A   6      -5.784  -4.455   1.713  1.00  0.00    -0.480 OA
ATOM     47  H   UNL     1      -6.242  -5.256   1.294  1.00  0.00     0.296 HD
ENDBRANCH  44  46
ENDBRANCH  43  44
BRANCH  43  48
ATOM     48  CB  ASN A   6      -6.262  -1.426   3.123  1.00  0.00     0.136 C 
BRANCH  48  49
ATOM     49  CG  ASN A   6      -7.436  -0.612   2.668  1.00  0.00     0.220 C 
ATOM     50  ND2 ASN A   6      -8.671  -1.237   2.317  1.00  0.00    -0.370 N 
ATOM     51  OD1 ASN A   6      -7.334   0.642   2.604  1.00  0.00    -0.275 OA
ATOM     52  H   UNL     1      -9.478  -0.655   2.003  1.00  0.00     0.159 HD
ATOM     53  H   UNL     1      -8.789  -2.272   2.390  1.00  0.00     0.159 HD
ENDBRANCH  48  49
ENDBRANCH  43  48
ENDBRANCH  40  43
ENDBRANCH  38  39
BRANCH  38  54
ATOM     54  CB  ARG A   5      -4.653   1.597  -0.722  1.00  0.00     0.037 C 
BRANCH  54  55
ATOM     55  CG  ARG A   5      -5.485   2.600   0.086  1.00  0.00     0.024 C 
BRANCH  55  56
ATOM     56  CD  ARG A   5      -6.462   3.345  -0.828  1.00  0.00     0.116 C 
BRANCH  56  57
ATOM     57  NE  ARG A   5      -7.341   4.214  -0.046  1.00  0.00    -0.357 N 
ATOM     58  CZ  ARG A   5      -8.490   3.763   0.699  1.00  0.00     0.185 C 
ATOM     59  NH2 ARG A   5      -9.257   4.712   1.441  1.00  0.00    -0.370 N 
ATOM     60  H   UNL     1      -7.143   5.239  -0.070  1.00  0.00     0.163 HD
ATOM     61  H   UNL     1     -10.097   4.411   1.981  1.00  0.00     0.159 HD
ATOM     62  H   UNL     1      -9.017   5.728   1.410  1.00  0.00     0.159 HD
BRANCH  58  63
ATOM     63  NH1 ARG A   5      -8.859   2.520   0.705  1.00  0.00    -0.270 NA
ATOM     64  H   UNL     1      -8.359   1.760   0.193  1.00  0.00     0.191 HD
ENDBRANCH  58  63
ENDBRANCH  56  57
ENDBRANCH  55  56
ENDBRANCH  54  55
ENDBRANCH  38  54
ENDBRANCH  35  38
ENDBRANCH  33  34
BRANCH  33  65
ATOM     65  CB  VAL A   4      -2.137  -1.206  -3.461  1.00  0.00     0.015 C 
ATOM     66  CG1 VAL A   4      -1.436  -1.973  -4.596  1.00  0.00     0.010 C 
ATOM     67  CG2 VAL A   4      -3.380  -0.496  -4.030  1.00  0.00     0.010 C 
ENDBRANCH  33  65
ENDBRANCH   3  33
TORSDOF 30
