REMARK SMILES CC(C)C[C@H](NC(=O)[C@H](CCCNC(=N)N)NC(=O)[C@H](Cc1ccccc1)NC(=O)[C@@H](N)CO)C(=O)N[C@@H](C)C(=O)N[C@@H](CC(N)=O)C(=O)O
REMARK SMILES IDX 7 1 8 2 6 3 9 5 17 6 18 7 19 8 20 10 28 11 29 12 30 13 31 15
REMARK SMILES IDX 32 16 33 19 34 20 21 22 22 23 23 24 27 25 24 26 26 27 25 28
REMARK SMILES IDX 10 29 11 30 12 31 13 32 14 33 16 34 15 38 5 40 35 41 37 42
REMARK SMILES IDX 36 43 38 45 39 46 40 47 42 48 41 49 43 51 48 52 49 53 50 54
REMARK SMILES IDX 44 56 45 57 46 58 47 59 4 62 2 63 1 64 3 65
REMARK H PARENT 6 4 17 9 28 14 32 17 32 18 34 21 13 35 16 36 16 37 15 39 37 44
REMARK H PARENT 42 50 50 55 46 60 46 61
ROOT
ATOM      1  C   ARG A   3      20.037  10.083  -6.471  1.00  0.00     0.243 C 
ATOM      2  O   ARG A   3      20.149   9.161  -5.616  1.00  0.00    -0.273 OA
ATOM      3  N   LEU A   4      20.566   9.921  -7.776  1.00  0.00    -0.343 N 
ATOM      4  H   UNL     1      20.406  10.664  -8.495  1.00  0.00     0.164 HD
ENDROOT
BRANCH   1   5
ATOM      5  CA  ARG A   3      19.336  11.357  -6.139  1.00  0.00     0.171 C 
BRANCH   5   6
ATOM      6  N   ARG A   3      18.086  11.049  -5.497  1.00  0.00    -0.343 N 
ATOM      7  C   PHE A   2      16.884  11.750  -5.772  1.00  0.00     0.243 C 
ATOM      8  O   PHE A   2      16.900  12.792  -6.484  1.00  0.00    -0.273 OA
ATOM      9  H   UNL     1      18.162  10.513  -4.607  1.00  0.00     0.164 HD
BRANCH   7  10
ATOM     10  CA  PHE A   2      15.649  11.313  -5.060  1.00  0.00     0.175 C 
BRANCH  10  11
ATOM     11  N   PHE A   2      14.451  11.740  -5.769  1.00  0.00    -0.343 N 
ATOM     12  C   SER A   1      13.914  13.051  -5.637  1.00  0.00     0.239 C 
ATOM     13  O   SER A   1      14.449  13.870  -4.839  1.00  0.00    -0.273 OA
ATOM     14  H   UNL     1      13.858  11.001  -6.206  1.00  0.00     0.164 HD
BRANCH  12  15
ATOM     15  CA  SER A   1      12.654  13.411  -6.383  1.00  0.00     0.167 C 
BRANCH  15  16
ATOM     16  N   SER A   1      12.467  14.863  -6.382  1.00  0.00    -0.318 NA
ATOM     17  H   UNL     1      11.581  15.088  -6.891  1.00  0.00     0.119 HD
ATOM     18  H   UNL     1      12.304  15.175  -5.397  1.00  0.00     0.119 HD
ENDBRANCH  15  16
BRANCH  15  19
ATOM     19  CB  SER A   1      12.694  12.894  -7.842  1.00  0.00     0.184 C 
BRANCH  19  20
ATOM     20  OG  SER A   1      11.440  13.037  -8.449  1.00  0.00    -0.394 OA
ATOM     21  H   UNL     1      10.855  12.332  -8.065  1.00  0.00     0.210 HD
ENDBRANCH  19  20
ENDBRANCH  15  19
ENDBRANCH  12  15
ENDBRANCH  10  11
BRANCH  10  22
ATOM     22  CB  PHE A   2      15.611   9.774  -4.892  1.00  0.00     0.070 C 
BRANCH  22  23
ATOM     23  CG  PHE A   2      14.443   9.289  -4.090  1.00  0.00    -0.045 A 
ATOM     24  CD1 PHE A   2      13.903  10.046  -3.033  1.00  0.00     0.004 A 
ATOM     25  CD2 PHE A   2      13.968   7.989  -4.310  1.00  0.00     0.004 A 
ATOM     26  CE1 PHE A   2      12.869   9.535  -2.260  1.00  0.00     0.000 A 
ATOM     27  CE2 PHE A   2      12.939   7.477  -3.521  1.00  0.00     0.000 A 
ATOM     28  CZ  PHE A   2      12.386   8.252  -2.502  1.00  0.00     0.000 A 
ENDBRANCH  22  23
ENDBRANCH  10  22
ENDBRANCH   7  10
ENDBRANCH   5   6
BRANCH   5  29
ATOM     29  CB  ARG A   3      20.188  12.252  -5.233  1.00  0.00     0.037 C 
BRANCH  29  30
ATOM     30  CG  ARG A   3      20.422  11.698  -3.808  1.00  0.00     0.024 C 
BRANCH  30  31
ATOM     31  CD  ARG A   3      21.812  12.083  -3.304  1.00  0.00     0.116 C 
BRANCH  31  32
ATOM     32  NE  ARG A   3      22.018  11.621  -1.929  1.00  0.00    -0.357 N 
ATOM     33  CZ  ARG A   3      23.240  11.832  -1.200  1.00  0.00     0.185 C 
ATOM     34  NH2 ARG A   3      23.352  11.341   0.136  1.00  0.00    -0.370 N 
ATOM     35  H   UNL     1      21.247  11.108  -1.443  1.00  0.00     0.163 HD
ATOM     36  H   UNL     1      22.557  10.833   0.584  1.00  0.00     0.159 HD
ATOM     37  H   UNL     1      24.230  11.484   0.683  1.00  0.00     0.159 HD
BRANCH  33  38
ATOM     38  NH1 ARG A   3      24.246  12.459  -1.727  1.00  0.00    -0.270 NA
ATOM     39  H   UNL     1      24.241  12.846  -2.695  1.00  0.00     0.191 HD
ENDBRANCH  33  38
ENDBRANCH  31  32
ENDBRANCH  30  31
ENDBRANCH  29  30
ENDBRANCH   5  29
ENDBRANCH   1   5
BRANCH   3  40
ATOM     40  CA  LEU A   4      21.352   8.760  -8.141  1.00  0.00     0.171 C 
BRANCH  40  41
ATOM     41  C   LEU A   4      22.718   9.220  -8.518  1.00  0.00     0.243 C 
ATOM     42  N   ALA A   5      23.827   8.749  -7.764  1.00  0.00    -0.343 N 
ATOM     43  O   LEU A   4      22.881  10.028  -9.472  1.00  0.00    -0.273 OA
ATOM     44  H   UNL     1      23.671   8.066  -6.987  1.00  0.00     0.164 HD
BRANCH  42  45
ATOM     45  CA  ALA A   5      25.191   9.139  -8.062  1.00  0.00     0.168 C 
ATOM     46  CB  ALA A   5      25.875   9.624  -6.792  1.00  0.00     0.041 C 
BRANCH  45  47
ATOM     47  C   ALA A   5      25.899   7.978  -8.680  1.00  0.00     0.243 C 
ATOM     48  N   ASN A   6      25.910   7.872 -10.098  1.00  0.00    -0.341 N 
ATOM     49  O   ALA A   5      26.444   7.094  -7.965  1.00  0.00    -0.273 OA
ATOM     50  H   UNL     1      25.486   8.655 -10.646  1.00  0.00     0.164 HD
BRANCH  48  51
ATOM     51  CA  ASN A   6      26.539   6.756 -10.800  1.00  0.00     0.201 C 
BRANCH  51  52
ATOM     52  C   ASN A   6      27.990   6.645 -10.412  1.00  0.00     0.326 C 
ATOM     53  O   ASN A   6      28.793   7.579 -10.677  1.00  0.00    -0.250 OA
BRANCH  52  54
ATOM     54  OXT ASN A   6      28.446   5.502  -9.762  1.00  0.00    -0.480 OA
ATOM     55  H   UNL     1      29.418   5.411  -9.493  1.00  0.00     0.296 HD
ENDBRANCH  52  54
ENDBRANCH  51  52
BRANCH  51  56
ATOM     56  CB  ASN A   6      26.423   6.950 -12.320  1.00  0.00     0.136 C 
BRANCH  56  57
ATOM     57  CG  ASN A   6      25.009   7.182 -12.772  1.00  0.00     0.220 C 
ATOM     58  ND2 ASN A   6      24.753   8.090 -13.833  1.00  0.00    -0.370 N 
ATOM     59  OD1 ASN A   6      24.052   6.558 -12.243  1.00  0.00    -0.275 OA
ATOM     60  H   UNL     1      23.775   8.256 -14.158  1.00  0.00     0.159 HD
ATOM     61  H   UNL     1      25.533   8.600 -14.305  1.00  0.00     0.159 HD
ENDBRANCH  56  57
ENDBRANCH  51  56
ENDBRANCH  48  51
ENDBRANCH  45  47
ENDBRANCH  42  45
ENDBRANCH  40  41
BRANCH  40  62
ATOM     62  CB  LEU A   4      20.659   8.000  -9.273  1.00  0.00     0.038 C 
BRANCH  62  63
ATOM     63  CG  LEU A   4      21.450   6.771  -9.769  1.00  0.00    -0.015 C 
ATOM     64  CD1 LEU A   4      21.765   5.780  -8.638  1.00  0.00     0.007 C 
ATOM     65  CD2 LEU A   4      20.662   6.066 -10.877  1.00  0.00     0.007 C 
ENDBRANCH  62  63
ENDBRANCH  40  62
ENDBRANCH   3  40
TORSDOF 26
