REMARK SMILES CC(C)[C@H](NC(=O)[C@H](CCCCN)NC(=O)[C@H](Cc1ccccc1)NC(=O)[C@@H](N)CO)C(=O)N[C@@H](CCCNC(=N)N)C(=O)N[C@@H](CC(N)=O)C(=O)O
REMARK SMILES IDX 6 1 7 2 5 3 8 5 14 6 15 7 16 8 17 10 25 11 26 12 27 13 28 15
REMARK SMILES IDX 29 16 30 19 31 20 18 22 19 23 20 24 24 25 21 26 23 27 22 28
REMARK SMILES IDX 9 29 10 30 11 31 12 32 13 33 4 36 32 37 34 38 33 39 35 41
REMARK SMILES IDX 43 42 45 43 44 44 46 46 51 47 52 48 53 49 47 51 48 52 49 53
REMARK SMILES IDX 50 54 36 57 37 58 38 59 39 60 40 61 42 62 41 66 2 68 1 69
REMARK SMILES IDX 3 70
REMARK H PARENT 5 4 14 9 25 14 29 17 29 18 31 21 13 34 13 35 34 40 45 45 53 50
REMARK H PARENT 49 55 49 56 39 63 42 64 42 65 41 67
ROOT
ATOM      1  C   LYS A   3      20.041  10.079  -6.471  1.00  0.00     0.243 C 
ATOM      2  O   LYS A   3      20.153   9.157  -5.616  1.00  0.00    -0.273 OA
ATOM      3  N   VAL A   4      20.572   9.918  -7.775  1.00  0.00    -0.342 N 
ATOM      4  H   UNL     1      20.417  10.665  -8.491  1.00  0.00     0.164 HD
ENDROOT
BRANCH   1   5
ATOM      5  CA  LYS A   3      19.337  11.353  -6.141  1.00  0.00     0.171 C 
BRANCH   5   6
ATOM      6  N   LYS A   3      18.087  11.047  -5.497  1.00  0.00    -0.343 N 
ATOM      7  C   PHE A   2      16.885  11.749  -5.772  1.00  0.00     0.243 C 
ATOM      8  O   PHE A   2      16.902  12.791  -6.483  1.00  0.00    -0.273 OA
ATOM      9  H   UNL     1      18.163  10.513  -4.606  1.00  0.00     0.164 HD
BRANCH   7  10
ATOM     10  CA  PHE A   2      15.649  11.313  -5.060  1.00  0.00     0.175 C 
BRANCH  10  11
ATOM     11  N   PHE A   2      14.452  11.740  -5.769  1.00  0.00    -0.343 N 
ATOM     12  C   SER A   1      13.915  13.051  -5.637  1.00  0.00     0.239 C 
ATOM     13  O   SER A   1      14.449  13.870  -4.839  1.00  0.00    -0.273 OA
ATOM     14  H   UNL     1      13.859  11.001  -6.207  1.00  0.00     0.164 HD
BRANCH  12  15
ATOM     15  CA  SER A   1      12.655  13.411  -6.383  1.00  0.00     0.167 C 
BRANCH  15  16
ATOM     16  N   SER A   1      12.467  14.863  -6.382  1.00  0.00    -0.318 NA
ATOM     17  H   UNL     1      12.304  15.175  -5.396  1.00  0.00     0.119 HD
ATOM     18  H   UNL     1      11.581  15.088  -6.890  1.00  0.00     0.119 HD
ENDBRANCH  15  16
BRANCH  15  19
ATOM     19  CB  SER A   1      12.695  12.894  -7.842  1.00  0.00     0.184 C 
BRANCH  19  20
ATOM     20  OG  SER A   1      11.440  13.037  -8.449  1.00  0.00    -0.394 OA
ATOM     21  H   UNL     1      10.855  12.333  -8.065  1.00  0.00     0.210 HD
ENDBRANCH  19  20
ENDBRANCH  15  19
ENDBRANCH  12  15
ENDBRANCH  10  11
BRANCH  10  22
ATOM     22  CB  PHE A   2      15.612   9.773  -4.892  1.00  0.00     0.070 C 
BRANCH  22  23
ATOM     23  CG  PHE A   2      14.444   9.289  -4.090  1.00  0.00    -0.045 A 
ATOM     24  CD1 PHE A   2      13.903  10.046  -3.033  1.00  0.00     0.004 A 
ATOM     25  CD2 PHE A   2      13.968   7.989  -4.310  1.00  0.00     0.004 A 
ATOM     26  CE1 PHE A   2      12.869   9.535  -2.260  1.00  0.00     0.000 A 
ATOM     27  CE2 PHE A   2      12.939   7.477  -3.521  1.00  0.00     0.000 A 
ATOM     28  CZ  PHE A   2      12.386   8.252  -2.502  1.00  0.00     0.000 A 
ENDBRANCH  22  23
ENDBRANCH  10  22
ENDBRANCH   7  10
ENDBRANCH   5   6
BRANCH   5  29
ATOM     29  CB  LYS A   3      20.190  12.253  -5.242  1.00  0.00     0.035 C 
BRANCH  29  30
ATOM     30  CG  LYS A   3      20.428  11.711  -3.813  1.00  0.00     0.004 C 
BRANCH  30  31
ATOM     31  CD  LYS A   3      21.827  12.062  -3.294  1.00  0.00     0.015 C 
BRANCH  31  32
ATOM     32  CE  LYS A   3      22.010  13.552  -2.970  1.00  0.00     0.077 C 
BRANCH  32  33
ATOM     33  NZ  LYS A   3      22.167  14.342  -4.187  1.00  0.00    -0.330 NA
ATOM     34  H   UNL     1      22.229  15.348  -3.909  1.00  0.00     0.118 HD
ATOM     35  H   UNL     1      23.088  14.096  -4.620  1.00  0.00     0.118 HD
ENDBRANCH  32  33
ENDBRANCH  31  32
ENDBRANCH  30  31
ENDBRANCH  29  30
ENDBRANCH   5  29
ENDBRANCH   1   5
BRANCH   3  36
ATOM     36  CA  VAL A   4      21.340   8.747  -8.155  1.00  0.00     0.174 C 
BRANCH  36  37
ATOM     37  C   VAL A   4      22.710   9.206  -8.526  1.00  0.00     0.243 C 
ATOM     38  N   ARG A   5      23.817   8.708  -7.790  1.00  0.00    -0.343 N 
ATOM     39  O   VAL A   4      22.876  10.031  -9.465  1.00  0.00    -0.273 OA
ATOM     40  H   UNL     1      23.662   7.982  -7.052  1.00  0.00     0.164 HD
BRANCH  38  41
ATOM     41  CA  ARG A   5      25.181   9.117  -8.071  1.00  0.00     0.171 C 
BRANCH  41  42
ATOM     42  C   ARG A   5      25.901   7.968  -8.685  1.00  0.00     0.243 C 
ATOM     43  N   ASN A   6      25.914   7.865 -10.102  1.00  0.00    -0.341 N 
ATOM     44  O   ARG A   5      26.449   7.087  -7.970  1.00  0.00    -0.273 OA
ATOM     45  H   UNL     1      25.491   8.649 -10.651  1.00  0.00     0.164 HD
BRANCH  43  46
ATOM     46  CA  ASN A   6      26.542   6.751 -10.804  1.00  0.00     0.201 C 
BRANCH  46  47
ATOM     47  C   ASN A   6      27.993   6.642 -10.416  1.00  0.00     0.326 C 
ATOM     48  O   ASN A   6      28.794   7.579 -10.677  1.00  0.00    -0.250 OA
BRANCH  47  49
ATOM     49  OXT ASN A   6      28.452   5.498  -9.770  1.00  0.00    -0.480 OA
ATOM     50  H   UNL     1      29.425   5.408  -9.502  1.00  0.00     0.296 HD
ENDBRANCH  47  49
ENDBRANCH  46  47
BRANCH  46  51
ATOM     51  CB  ASN A   6      26.425   6.947 -12.323  1.00  0.00     0.136 C 
BRANCH  51  52
ATOM     52  CG  ASN A   6      25.010   7.181 -12.773  1.00  0.00     0.220 C 
ATOM     53  ND2 ASN A   6      24.754   8.091 -13.834  1.00  0.00    -0.370 N 
ATOM     54  OD1 ASN A   6      24.053   6.559 -12.242  1.00  0.00    -0.275 OA
ATOM     55  H   UNL     1      23.775   8.258 -14.157  1.00  0.00     0.159 HD
ATOM     56  H   UNL     1      25.533   8.599 -14.307  1.00  0.00     0.159 HD
ENDBRANCH  51  52
ENDBRANCH  46  51
ENDBRANCH  43  46
ENDBRANCH  41  42
BRANCH  41  57
ATOM     57  CB  ARG A   5      25.856   9.601  -6.792  1.00  0.00     0.037 C 
BRANCH  57  58
ATOM     58  CG  ARG A   5      25.161  10.858  -6.270  1.00  0.00     0.024 C 
BRANCH  58  59
ATOM     59  CD  ARG A   5      25.836  11.391  -5.014  1.00  0.00     0.116 C 
BRANCH  59  60
ATOM     60  NE  ARG A   5      25.377  10.686  -3.820  1.00  0.00    -0.357 N 
ATOM     61  CZ  ARG A   5      25.468  11.282  -2.527  1.00  0.00     0.185 C 
ATOM     62  NH2 ARG A   5      26.105  12.548  -2.352  1.00  0.00    -0.370 N 
ATOM     63  H   UNL     1      24.893   9.764  -3.911  1.00  0.00     0.163 HD
ATOM     64  H   UNL     1      26.693  12.985  -3.094  1.00  0.00     0.159 HD
ATOM     65  H   UNL     1      26.074  13.027  -1.425  1.00  0.00     0.159 HD
BRANCH  61  66
ATOM     66  NH1 ARG A   5      24.954  10.673  -1.507  1.00  0.00    -0.270 NA
ATOM     67  H   UNL     1      24.994  11.078  -0.545  1.00  0.00     0.191 HD
ENDBRANCH  61  66
ENDBRANCH  59  60
ENDBRANCH  58  59
ENDBRANCH  57  58
ENDBRANCH  41  57
ENDBRANCH  38  41
ENDBRANCH  36  37
BRANCH  36  68
ATOM     68  CB  VAL A   4      20.644   8.000  -9.310  1.00  0.00     0.015 C 
ATOM     69  CG1 VAL A   4      21.450   6.771  -9.754  1.00  0.00     0.010 C 
ATOM     70  CG2 VAL A   4      19.224   7.566  -8.913  1.00  0.00     0.010 C 
ENDBRANCH  36  68
ENDBRANCH   3  36
TORSDOF 30
