REMARK SMILES CC(C)[C@H](NC(=O)[C@H](CC(N)=O)NC(=O)[C@H](Cc1ccccc1)NC(=O)[C@@H](N)CO)C(=O)N[C@@H](CCCNC(=N)N)C(=O)N[C@@H](CC(N)=O)C(=O)O
REMARK SMILES IDX 6 1 7 2 5 3 8 5 13 6 14 7 15 8 16 10 24 11 25 12 26 13 27 15
REMARK SMILES IDX 28 16 29 19 30 20 17 22 18 23 19 24 23 25 20 26 22 27 21 28
REMARK SMILES IDX 9 29 10 30 11 31 12 32 4 35 31 36 33 37 32 38 34 40 42 41
REMARK SMILES IDX 44 42 43 43 45 45 50 46 51 47 52 48 46 50 47 51 48 52 49 53
REMARK SMILES IDX 35 56 36 57 37 58 38 59 39 60 41 61 40 65 2 67 1 68 3 69
REMARK H PARENT 5 4 13 9 24 14 28 17 28 18 30 21 11 33 11 34 33 39 44 44 52 49
REMARK H PARENT 48 54 48 55 38 62 41 63 41 64 40 66
ROOT
ATOM      1  C   ASN A   3      20.056  10.092  -6.459  1.00  0.00     0.243 C 
ATOM      2  O   ASN A   3      20.175   9.179  -5.595  1.00  0.00    -0.273 OA
ATOM      3  N   VAL A   4      20.570   9.919  -7.770  1.00  0.00    -0.342 N 
ATOM      4  H   UNL     1      20.407  10.660  -8.489  1.00  0.00     0.164 HD
ENDROOT
BRANCH   1   5
ATOM      5  CA  ASN A   3      19.349  11.364  -6.132  1.00  0.00     0.180 C 
BRANCH   5   6
ATOM      6  N   ASN A   3      18.091  11.040  -5.511  1.00  0.00    -0.342 N 
ATOM      7  C   PHE A   2      16.889  11.748  -5.774  1.00  0.00     0.243 C 
ATOM      8  O   PHE A   2      16.905  12.792  -6.482  1.00  0.00    -0.273 OA
ATOM      9  H   UNL     1      18.166  10.477  -4.639  1.00  0.00     0.164 HD
BRANCH   7  10
ATOM     10  CA  PHE A   2      15.654  11.312  -5.058  1.00  0.00     0.175 C 
BRANCH  10  11
ATOM     11  N   PHE A   2      14.457  11.739  -5.768  1.00  0.00    -0.343 N 
ATOM     12  C   SER A   1      13.917  13.048  -5.634  1.00  0.00     0.239 C 
ATOM     13  O   SER A   1      14.447  13.866  -4.833  1.00  0.00    -0.273 OA
ATOM     14  H   UNL     1      13.870  10.999  -6.212  1.00  0.00     0.164 HD
BRANCH  12  15
ATOM     15  CA  SER A   1      12.661  13.409  -6.390  1.00  0.00     0.167 C 
BRANCH  15  16
ATOM     16  N   SER A   1      12.454  14.859  -6.401  1.00  0.00    -0.318 NA
ATOM     17  H   UNL     1      13.315  15.336  -6.757  1.00  0.00     0.119 HD
ATOM     18  H   UNL     1      12.284  15.188  -5.423  1.00  0.00     0.119 HD
ENDBRANCH  15  16
BRANCH  15  19
ATOM     19  CB  SER A   1      12.693  12.886  -7.842  1.00  0.00     0.184 C 
BRANCH  19  20
ATOM     20  OG  SER A   1      11.438  13.058  -8.436  1.00  0.00    -0.394 OA
ATOM     21  H   UNL     1      11.539  12.786  -9.386  1.00  0.00     0.210 HD
ENDBRANCH  19  20
ENDBRANCH  15  19
ENDBRANCH  12  15
ENDBRANCH  10  11
BRANCH  10  22
ATOM     22  CB  PHE A   2      15.614   9.773  -4.888  1.00  0.00     0.070 C 
BRANCH  22  23
ATOM     23  CG  PHE A   2      14.443   9.290  -4.090  1.00  0.00    -0.045 A 
ATOM     24  CD1 PHE A   2      13.903  10.047  -3.033  1.00  0.00     0.004 A 
ATOM     25  CD2 PHE A   2      13.968   7.990  -4.310  1.00  0.00     0.004 A 
ATOM     26  CE1 PHE A   2      12.868   9.536  -2.260  1.00  0.00     0.000 A 
ATOM     27  CE2 PHE A   2      12.939   7.477  -3.521  1.00  0.00     0.000 A 
ATOM     28  CZ  PHE A   2      12.386   8.253  -2.502  1.00  0.00     0.000 A 
ENDBRANCH  22  23
ENDBRANCH  10  22
ENDBRANCH   7  10
ENDBRANCH   5   6
BRANCH   5  29
ATOM     29  CB  ASN A   3      20.178  12.262  -5.202  1.00  0.00     0.134 C 
BRANCH  29  30
ATOM     30  CG  ASN A   3      20.419  11.672  -3.835  1.00  0.00     0.220 C 
ATOM     31  ND2 ASN A   3      19.494  11.904  -2.771  1.00  0.00    -0.370 N 
ATOM     32  OD1 ASN A   3      21.442  10.966  -3.629  1.00  0.00    -0.275 OA
ATOM     33  H   UNL     1      19.662  11.489  -1.828  1.00  0.00     0.159 HD
ATOM     34  H   UNL     1      18.639  12.484  -2.925  1.00  0.00     0.159 HD
ENDBRANCH  29  30
ENDBRANCH   5  29
ENDBRANCH   1   5
BRANCH   3  35
ATOM     35  CA  VAL A   4      21.338   8.747  -8.151  1.00  0.00     0.174 C 
BRANCH  35  36
ATOM     36  C   VAL A   4      22.708   9.206  -8.524  1.00  0.00     0.243 C 
ATOM     37  N   ARG A   5      23.817   8.708  -7.789  1.00  0.00    -0.343 N 
ATOM     38  O   VAL A   4      22.875  10.031  -9.464  1.00  0.00    -0.273 OA
ATOM     39  H   UNL     1      23.662   7.982  -7.052  1.00  0.00     0.164 HD
BRANCH  37  40
ATOM     40  CA  ARG A   5      25.181   9.117  -8.072  1.00  0.00     0.171 C 
BRANCH  40  41
ATOM     41  C   ARG A   5      25.900   7.967  -8.686  1.00  0.00     0.243 C 
ATOM     42  N   ASN A   6      25.914   7.865 -10.103  1.00  0.00    -0.341 N 
ATOM     43  O   ARG A   5      26.449   7.087  -7.970  1.00  0.00    -0.273 OA
ATOM     44  H   UNL     1      25.491   8.649 -10.651  1.00  0.00     0.164 HD
BRANCH  42  45
ATOM     45  CA  ASN A   6      26.543   6.751 -10.804  1.00  0.00     0.201 C 
BRANCH  45  46
ATOM     46  C   ASN A   6      27.993   6.642 -10.416  1.00  0.00     0.326 C 
ATOM     47  O   ASN A   6      28.794   7.579 -10.677  1.00  0.00    -0.250 OA
BRANCH  46  48
ATOM     48  OXT ASN A   6      28.452   5.498  -9.770  1.00  0.00    -0.480 OA
ATOM     49  H   UNL     1      29.425   5.408  -9.502  1.00  0.00     0.296 HD
ENDBRANCH  46  48
ENDBRANCH  45  46
BRANCH  45  50
ATOM     50  CB  ASN A   6      26.425   6.947 -12.324  1.00  0.00     0.136 C 
BRANCH  50  51
ATOM     51  CG  ASN A   6      25.010   7.181 -12.773  1.00  0.00     0.220 C 
ATOM     52  ND2 ASN A   6      24.754   8.091 -13.834  1.00  0.00    -0.370 N 
ATOM     53  OD1 ASN A   6      24.053   6.559 -12.242  1.00  0.00    -0.275 OA
ATOM     54  H   UNL     1      23.775   8.258 -14.157  1.00  0.00     0.159 HD
ATOM     55  H   UNL     1      25.533   8.599 -14.307  1.00  0.00     0.159 HD
ENDBRANCH  50  51
ENDBRANCH  45  50
ENDBRANCH  42  45
ENDBRANCH  40  41
BRANCH  40  56
ATOM     56  CB  ARG A   5      25.856   9.600  -6.794  1.00  0.00     0.037 C 
BRANCH  56  57
ATOM     57  CG  ARG A   5      25.164  10.859  -6.272  1.00  0.00     0.024 C 
BRANCH  57  58
ATOM     58  CD  ARG A   5      25.839  11.390  -5.015  1.00  0.00     0.116 C 
BRANCH  58  59
ATOM     59  NE  ARG A   5      25.376  10.685  -3.823  1.00  0.00    -0.357 N 
ATOM     60  CZ  ARG A   5      25.468  11.279  -2.527  1.00  0.00     0.185 C 
ATOM     61  NH2 ARG A   5      26.106  12.541  -2.350  1.00  0.00    -0.370 N 
ATOM     62  H   UNL     1      24.898   9.759  -3.921  1.00  0.00     0.163 HD
ATOM     63  H   UNL     1      26.692  12.982  -3.091  1.00  0.00     0.159 HD
ATOM     64  H   UNL     1      26.084  13.006  -1.415  1.00  0.00     0.159 HD
BRANCH  60  65
ATOM     65  NH1 ARG A   5      24.958  10.679  -1.500  1.00  0.00    -0.270 NA
ATOM     66  H   UNL     1      24.476   9.756  -1.583  1.00  0.00     0.191 HD
ENDBRANCH  60  65
ENDBRANCH  58  59
ENDBRANCH  57  58
ENDBRANCH  56  57
ENDBRANCH  40  56
ENDBRANCH  37  40
ENDBRANCH  35  36
BRANCH  35  67
ATOM     67  CB  VAL A   4      20.643   8.001  -9.307  1.00  0.00     0.015 C 
ATOM     68  CG1 VAL A   4      21.450   6.772  -9.753  1.00  0.00     0.010 C 
ATOM     69  CG2 VAL A   4      19.223   7.564  -8.908  1.00  0.00     0.010 C 
ENDBRANCH  35  67
ENDBRANCH   3  35
TORSDOF 27
