REMARK SMILES CC(C)C[C@H](NC(=O)CNC(=O)[C@H](Cc1ccccc1)NC(=O)[C@@H](N)CO)C(=O)N[C@@H](Cc1c[nH]cn1)C(=O)N[C@@H](CC(N)=O)C(=O)O
REMARK SMILES IDX 7 1 8 2 6 3 9 5 10 6 11 7 12 8 13 10 21 11 22 12 23 13 24 15
REMARK SMILES IDX 25 16 26 19 27 20 14 22 15 23 16 24 20 25 17 26 19 27 18 28
REMARK SMILES IDX 5 29 28 30 30 31 29 32 31 34 38 35 40 36 39 37 41 39 46 40
REMARK SMILES IDX 47 41 48 42 42 44 43 45 44 46 45 47 32 50 33 51 37 52 34 53
REMARK SMILES IDX 36 54 35 55 4 57 2 58 1 59 3 60
REMARK H PARENT 6 4 10 9 21 14 25 17 25 18 27 21 30 33 40 38 48 43 44 48 44 49
REMARK H PARENT 35 56
ROOT
ATOM      1  C   GLY A   3      20.043  10.102  -6.466  1.00  0.00     0.240 C 
ATOM      2  O   GLY A   3      20.173   9.205  -5.586  1.00  0.00    -0.273 OA
ATOM      3  N   LEU A   4      20.559   9.919  -7.774  1.00  0.00    -0.343 N 
ATOM      4  H   UNL     1      20.390  10.652  -8.501  1.00  0.00     0.164 HD
ENDROOT
BRANCH   1   5
ATOM      5  CA  GLY A   3      19.353  11.378  -6.152  1.00  0.00     0.216 C 
BRANCH   5   6
ATOM      6  N   GLY A   3      18.113  11.084  -5.477  1.00  0.00    -0.345 N 
ATOM      7  C   PHE A   2      16.897  11.758  -5.771  1.00  0.00     0.243 C 
ATOM      8  O   PHE A   2      16.902  12.792  -6.494  1.00  0.00    -0.273 OA
ATOM      9  H   UNL     1      18.214  10.612  -4.552  1.00  0.00     0.164 HD
BRANCH   7  10
ATOM     10  CA  PHE A   2      15.659  11.317  -5.060  1.00  0.00     0.175 C 
BRANCH  10  11
ATOM     11  N   PHE A   2      14.460  11.741  -5.770  1.00  0.00    -0.343 N 
ATOM     12  C   SER A   1      13.917  13.050  -5.637  1.00  0.00     0.239 C 
ATOM     13  O   SER A   1      14.444  13.870  -4.836  1.00  0.00    -0.273 OA
ATOM     14  H   UNL     1      13.874  11.000  -6.213  1.00  0.00     0.164 HD
BRANCH  12  15
ATOM     15  CA  SER A   1      12.662  13.409  -6.388  1.00  0.00     0.167 C 
BRANCH  15  16
ATOM     16  N   SER A   1      12.472  14.861  -6.376  1.00  0.00    -0.318 NA
ATOM     17  H   UNL     1      11.539  15.085  -6.792  1.00  0.00     0.119 HD
ATOM     18  H   UNL     1      13.201  15.316  -6.973  1.00  0.00     0.119 HD
ENDBRANCH  15  16
BRANCH  15  19
ATOM     19  CB  SER A   1      12.687  12.877  -7.844  1.00  0.00     0.184 C 
BRANCH  19  20
ATOM     20  OG  SER A   1      11.437  13.048  -8.451  1.00  0.00    -0.394 OA
ATOM     21  H   UNL     1      10.831  12.369  -8.053  1.00  0.00     0.210 HD
ENDBRANCH  19  20
ENDBRANCH  15  19
ENDBRANCH  12  15
ENDBRANCH  10  11
BRANCH  10  22
ATOM     22  CB  PHE A   2      15.628   9.779  -4.890  1.00  0.00     0.070 C 
BRANCH  22  23
ATOM     23  CG  PHE A   2      14.456   9.290  -4.088  1.00  0.00    -0.045 A 
ATOM     24  CD1 PHE A   2      13.910  10.047  -3.033  1.00  0.00     0.004 A 
ATOM     25  CD2 PHE A   2      13.977   7.991  -4.311  1.00  0.00     0.004 A 
ATOM     26  CE1 PHE A   2      12.872   9.537  -2.263  1.00  0.00     0.000 A 
ATOM     27  CE2 PHE A   2      12.944   7.479  -3.524  1.00  0.00     0.000 A 
ATOM     28  CZ  PHE A   2      12.389   8.254  -2.506  1.00  0.00     0.000 A 
ENDBRANCH  22  23
ENDBRANCH  10  22
ENDBRANCH   7  10
ENDBRANCH   5   6
ENDBRANCH   1   5
BRANCH   3  29
ATOM     29  CA  LEU A   4      21.347   8.759  -8.136  1.00  0.00     0.171 C 
BRANCH  29  30
ATOM     30  C   LEU A   4      22.713   9.218  -8.516  1.00  0.00     0.243 C 
ATOM     31  N   HIS A   5      23.824   8.734  -7.774  1.00  0.00    -0.342 N 
ATOM     32  O   LEU A   4      22.876  10.030  -9.468  1.00  0.00    -0.273 OA
ATOM     33  H   UNL     1      23.670   8.047  -7.001  1.00  0.00     0.164 HD
BRANCH  31  34
ATOM     34  CA  HIS A   5      25.187   9.138  -8.065  1.00  0.00     0.177 C 
BRANCH  34  35
ATOM     35  C   HIS A   5      25.901   7.980  -8.680  1.00  0.00     0.243 C 
ATOM     36  N   ASN A   6      25.912   7.871 -10.098  1.00  0.00    -0.340 N 
ATOM     37  O   HIS A   5      26.446   7.097  -7.964  1.00  0.00    -0.273 OA
ATOM     38  H   UNL     1      25.486   8.653 -10.647  1.00  0.00     0.164 HD
BRANCH  36  39
ATOM     39  CA  ASN A   6      26.540   6.755 -10.799  1.00  0.00     0.201 C 
BRANCH  39  40
ATOM     40  C   ASN A   6      27.991   6.644 -10.412  1.00  0.00     0.326 C 
ATOM     41  O   ASN A   6      28.794   7.578 -10.677  1.00  0.00    -0.250 OA
BRANCH  40  42
ATOM     42  OXT ASN A   6      28.447   5.502  -9.762  1.00  0.00    -0.480 OA
ATOM     43  H   UNL     1      29.420   5.410  -9.494  1.00  0.00     0.296 HD
ENDBRANCH  40  42
ENDBRANCH  39  40
BRANCH  39  44
ATOM     44  CB  ASN A   6      26.423   6.949 -12.320  1.00  0.00     0.136 C 
BRANCH  44  45
ATOM     45  CG  ASN A   6      25.010   7.181 -12.772  1.00  0.00     0.220 C 
ATOM     46  ND2 ASN A   6      24.753   8.090 -13.833  1.00  0.00    -0.370 N 
ATOM     47  OD1 ASN A   6      24.052   6.558 -12.243  1.00  0.00    -0.275 OA
ATOM     48  H   UNL     1      23.775   8.256 -14.158  1.00  0.00     0.159 HD
ATOM     49  H   UNL     1      25.533   8.600 -14.305  1.00  0.00     0.159 HD
ENDBRANCH  44  45
ENDBRANCH  39  44
ENDBRANCH  36  39
ENDBRANCH  34  35
BRANCH  34  50
ATOM     50  CB  HIS A   5      25.868   9.635  -6.789  1.00  0.00     0.093 C 
BRANCH  50  51
ATOM     51  CG  HIS A   5      25.150  10.831  -6.238  1.00  0.00     0.061 A 
ATOM     52  ND1 HIS A   5      24.130  10.757  -5.359  1.00  0.00    -0.242 NA
ATOM     53  CD2 HIS A   5      25.328  12.137  -6.638  1.00  0.00     0.107 A 
ATOM     54  CE1 HIS A   5      23.721  12.036  -5.227  1.00  0.00     0.196 A 
ATOM     55  NE2 HIS A   5      24.428  12.891  -5.990  1.00  0.00    -0.351 N 
ATOM     56  H   UNL     1      24.293  13.923  -6.073  1.00  0.00     0.167 HD
ENDBRANCH  50  51
ENDBRANCH  34  50
ENDBRANCH  31  34
ENDBRANCH  29  30
BRANCH  29  57
ATOM     57  CB  LEU A   4      20.656   7.997  -9.270  1.00  0.00     0.038 C 
BRANCH  57  58
ATOM     58  CG  LEU A   4      21.450   6.770  -9.767  1.00  0.00    -0.015 C 
ATOM     59  CD1 LEU A   4      21.764   5.779  -8.638  1.00  0.00     0.007 C 
ATOM     60  CD2 LEU A   4      20.663   6.067 -10.876  1.00  0.00     0.007 C 
ENDBRANCH  57  58
ENDBRANCH  29  57
ENDBRANCH   3  29
TORSDOF 23
