REMARK SMILES CC(C)C[C@H](NC(=O)[C@H](Cc1ccccc1)NC(=O)[C@@H](N)Cc1c[nH]cn1)C(=O)N[C@@H](C)C(=O)N[C@@H](CCCNC(=N)N)C(=O)N[C@@H](CC(N)=O)C(=O)O
REMARK SMILES IDX 28 1 29 2 30 3 5 5 6 6 7 7 8 8 9 10 17 11 18 12 19 13 20 15
REMARK SMILES IDX 21 16 22 19 23 20 27 21 24 22 26 23 25 24 10 26 11 27 12 28
REMARK SMILES IDX 16 29 13 30 15 31 14 32 4 33 2 34 1 35 3 36 31 37 32 38
REMARK SMILES IDX 33 39 35 40 34 41 36 43 44 44 46 45 45 46 47 48 52 49 53 50
REMARK SMILES IDX 54 51 48 53 49 54 50 55 51 56 37 59 38 60 39 61 40 62 41 63
REMARK SMILES IDX 43 64 42 68
REMARK H PARENT 30 4 6 9 17 14 21 17 21 18 25 25 35 42 46 47 54 52 50 57 50 58
REMARK H PARENT 40 65 43 66 43 67 42 69
ROOT
ATOM      1  C   LEU A   3       1.010   0.093  -1.149  1.00  0.00     0.243 C 
ATOM      2  O   LEU A   3       1.318  -0.777  -0.287  1.00  0.00    -0.273 OA
ATOM      3  N   ALA A   4      -0.080   0.994  -0.903  1.00  0.00    -0.343 N 
ATOM      4  H   UNL     1      -0.445   1.560  -1.700  1.00  0.00     0.164 HD
ENDROOT
BRANCH   1   5
ATOM      5  CA  LEU A   3       1.777   0.196  -2.447  1.00  0.00     0.171 C 
BRANCH   5   6
ATOM      6  N   LEU A   3       3.099  -0.451  -2.384  1.00  0.00    -0.343 N 
ATOM      7  C   PHE A   2       4.133  -0.040  -1.473  1.00  0.00     0.243 C 
ATOM      8  O   PHE A   2       3.864   0.719  -0.503  1.00  0.00    -0.273 OA
ATOM      9  H   UNL     1       3.383  -1.102  -3.146  1.00  0.00     0.164 HD
BRANCH   7  10
ATOM     10  CA  PHE A   2       5.531  -0.577  -1.643  1.00  0.00     0.175 C 
BRANCH  10  11
ATOM     11  N   PHE A   2       6.513   0.293  -0.989  1.00  0.00    -0.343 N 
ATOM     12  C   HIS A   1       6.937   1.542  -1.555  1.00  0.00     0.237 C 
ATOM     13  O   HIS A   1       6.338   2.021  -2.555  1.00  0.00    -0.273 OA
ATOM     14  H   UNL     1       6.949  -0.006  -0.086  1.00  0.00     0.164 HD
BRANCH  12  15
ATOM     15  CA  HIS A   1       8.088   2.298  -0.923  1.00  0.00     0.147 C 
BRANCH  15  16
ATOM     16  N   HIS A   1       8.857   3.029  -1.930  1.00  0.00    -0.320 NA
ATOM     17  H   UNL     1       8.247   3.738  -2.392  1.00  0.00     0.119 HD
ATOM     18  H   UNL     1       9.173   2.360  -2.667  1.00  0.00     0.119 HD
ENDBRANCH  15  16
BRANCH  15  19
ATOM     19  CB  HIS A   1       7.605   3.266   0.173  1.00  0.00     0.086 C 
BRANCH  19  20
ATOM     20  CG  HIS A   1       6.934   2.532   1.295  1.00  0.00     0.060 A 
ATOM     21  ND1 HIS A   1       7.569   1.697   2.135  1.00  0.00    -0.242 NA
ATOM     22  CD2 HIS A   1       5.583   2.525   1.559  1.00  0.00     0.107 A 
ATOM     23  CE1 HIS A   1       6.580   1.208   2.913  1.00  0.00     0.196 A 
ATOM     24  NE2 HIS A   1       5.370   1.692   2.586  1.00  0.00    -0.351 N 
ATOM     25  H   UNL     1       4.450   1.439   3.014  1.00  0.00     0.167 HD
ENDBRANCH  19  20
ENDBRANCH  15  19
ENDBRANCH  12  15
ENDBRANCH  10  11
BRANCH  10  26
ATOM     26  CB  PHE A   2       5.654  -2.036  -1.152  1.00  0.00     0.070 C 
BRANCH  26  27
ATOM     27  CG  PHE A   2       5.244  -2.226   0.290  1.00  0.00    -0.045 A 
ATOM     28  CD1 PHE A   2       6.195  -2.172   1.320  1.00  0.00     0.004 A 
ATOM     29  CD2 PHE A   2       3.902  -2.498   0.604  1.00  0.00     0.004 A 
ATOM     30  CE1 PHE A   2       5.798  -2.329   2.648  1.00  0.00     0.000 A 
ATOM     31  CE2 PHE A   2       3.507  -2.638   1.938  1.00  0.00     0.000 A 
ATOM     32  CZ  PHE A   2       4.454  -2.539   2.964  1.00  0.00     0.000 A 
ENDBRANCH  26  27
ENDBRANCH  10  26
ENDBRANCH   7  10
ENDBRANCH   5   6
BRANCH   5  33
ATOM     33  CB  LEU A   3       0.948  -0.326  -3.646  1.00  0.00     0.038 C 
BRANCH  33  34
ATOM     34  CG  LEU A   3       0.668  -1.856  -3.667  1.00  0.00    -0.015 C 
ATOM     35  CD1 LEU A   3       0.460  -2.331  -5.112  1.00  0.00     0.007 C 
ATOM     36  CD2 LEU A   3      -0.568  -2.221  -2.833  1.00  0.00     0.007 C 
ENDBRANCH  33  34
ENDBRANCH   5  33
ENDBRANCH   1   5
BRANCH   3  37
ATOM     37  CA  ALA A   4      -0.730   1.122   0.408  1.00  0.00     0.168 C 
ATOM     38  CB  ALA A   4      -1.060   2.604   0.653  1.00  0.00     0.041 C 
BRANCH  37  39
ATOM     39  C   ALA A   4      -1.967   0.248   0.460  1.00  0.00     0.242 C 
ATOM     40  N   ARG A   5      -3.008   0.496   1.420  1.00  0.00    -0.343 N 
ATOM     41  O   ALA A   4      -2.055  -0.749  -0.302  1.00  0.00    -0.273 OA
ATOM     42  H   UNL     1      -2.807   1.161   2.204  1.00  0.00     0.164 HD
BRANCH  40  43
ATOM     43  CA  ARG A   5      -4.249  -0.290   1.467  1.00  0.00     0.171 C 
BRANCH  43  44
ATOM     44  C   ARG A   5      -4.940  -0.319   0.123  1.00  0.00     0.243 C 
ATOM     45  N   ASN A   6      -5.663  -1.491  -0.274  1.00  0.00    -0.341 N 
ATOM     46  O   ARG A   5      -4.913   0.697  -0.625  1.00  0.00    -0.273 OA
ATOM     47  H   UNL     1      -5.650  -2.315   0.372  1.00  0.00     0.164 HD
BRANCH  45  48
ATOM     48  CA  ASN A   6      -6.632  -1.489  -1.375  1.00  0.00     0.201 C 
BRANCH  48  49
ATOM     49  C   ASN A   6      -7.991  -1.109  -0.851  1.00  0.00     0.326 C 
ATOM     50  O   ASN A   6      -8.350  -1.454   0.314  1.00  0.00    -0.250 OA
BRANCH  49  51
ATOM     51  OXT ASN A   6      -8.876  -0.416  -1.670  1.00  0.00    -0.480 OA
ATOM     52  H   UNL     1      -9.794  -0.150  -1.338  1.00  0.00     0.296 HD
ENDBRANCH  49  51
ENDBRANCH  48  49
BRANCH  48  53
ATOM     53  CB  ASN A   6      -6.660  -2.874  -2.047  1.00  0.00     0.136 C 
BRANCH  53  54
ATOM     54  CG  ASN A   6      -7.613  -2.912  -3.213  1.00  0.00     0.220 C 
ATOM     55  ND2 ASN A   6      -8.753  -3.771  -3.184  1.00  0.00    -0.370 N 
ATOM     56  OD1 ASN A   6      -7.418  -2.171  -4.212  1.00  0.00    -0.275 OA
ATOM     57  H   UNL     1      -8.904  -4.446  -2.399  1.00  0.00     0.159 HD
ATOM     58  H   UNL     1      -9.479  -3.719  -3.930  1.00  0.00     0.159 HD
ENDBRANCH  53  54
ENDBRANCH  48  53
ENDBRANCH  45  48
ENDBRANCH  43  44
BRANCH  43  59
ATOM     59  CB  ARG A   5      -5.210   0.224   2.561  1.00  0.00     0.037 C 
BRANCH  59  60
ATOM     60  CG  ARG A   5      -5.677   1.675   2.326  1.00  0.00     0.024 C 
BRANCH  60  61
ATOM     61  CD  ARG A   5      -6.603   2.176   3.444  1.00  0.00     0.116 C 
BRANCH  61  62
ATOM     62  NE  ARG A   5      -5.970   2.098   4.764  1.00  0.00    -0.357 N 
ATOM     63  CZ  ARG A   5      -4.876   2.938   5.167  1.00  0.00     0.185 C 
ATOM     64  NH2 ARG A   5      -4.325   2.793   6.474  1.00  0.00    -0.370 N 
ATOM     65  H   UNL     1      -6.356   1.413   5.451  1.00  0.00     0.163 HD
ATOM     66  H   UNL     1      -3.467   3.310   6.762  1.00  0.00     0.159 HD
ATOM     67  H   UNL     1      -4.804   2.182   7.171  1.00  0.00     0.159 HD
BRANCH  63  68
ATOM     68  NH1 ARG A   5      -4.397   3.834   4.359  1.00  0.00    -0.270 NA
ATOM     69  H   UNL     1      -3.608   4.465   4.631  1.00  0.00     0.191 HD
ENDBRANCH  63  68
ENDBRANCH  61  62
ENDBRANCH  60  61
ENDBRANCH  59  60
ENDBRANCH  43  59
ENDBRANCH  40  43
ENDBRANCH  37  39
ENDBRANCH   3  37
TORSDOF 26
