REMARK SMILES CC(C)C[C@H](NC(=O)[C@H](CO)NC(=O)[C@@H]1CCCN1C(=O)[C@@H](N)CO)C(=O)N[C@@H](CCCNC(=N)N)C(=O)N[C@@H](CC(N)=O)C(=O)O
REMARK SMILES IDX 7 1 8 2 6 3 9 5 12 6 13 7 14 8 15 10 19 11 18 12 16 13 17 14
REMARK SMILES IDX 20 15 21 16 22 17 23 18 24 21 25 22 10 24 11 25 5 27 26 28
REMARK SMILES IDX 28 29 27 30 29 32 37 33 39 34 38 35 40 37 45 38 46 39 47 40
REMARK SMILES IDX 41 42 42 43 43 44 44 45 30 48 31 49 32 50 33 51 34 52 36 53
REMARK SMILES IDX 35 57 4 59 2 60 1 61 3 62
REMARK H PARENT 6 4 12 9 23 19 23 20 25 23 11 26 28 31 39 36 47 41 43 46 43 47
REMARK H PARENT 33 54 36 55 36 56 35 58
ROOT
ATOM      1  C   SER A   3      20.034  10.089  -6.454  1.00  0.00     0.245 C 
ATOM      2  O   SER A   3      20.179   9.188  -5.581  1.00  0.00    -0.273 OA
ATOM      3  N   LEU A   4      20.558   9.922  -7.764  1.00  0.00    -0.342 N 
ATOM      4  H   UNL     1      20.387  10.660  -8.486  1.00  0.00     0.164 HD
ENDROOT
BRANCH   1   5
ATOM      5  CA  SER A   3      19.299  11.344  -6.128  1.00  0.00     0.197 C 
BRANCH   5   6
ATOM      6  N   SER A   3      18.017  10.999  -5.533  1.00  0.00    -0.340 N 
ATOM      7  C   PRO A   2      16.853  11.785  -5.751  1.00  0.00     0.243 C 
ATOM      8  O   PRO A   2      16.908  12.821  -6.469  1.00  0.00    -0.273 OA
ATOM      9  H   UNL     1      17.980  10.246  -4.808  1.00  0.00     0.164 HD
BRANCH   7  10
ATOM     10  CA  PRO A   2      15.563  11.383  -5.095  1.00  0.00     0.174 C 
ATOM     11  N   PRO A   2      14.997  12.498  -4.346  1.00  0.00    -0.329 N 
ATOM     12  CD  PRO A   2      13.616  12.770  -4.712  1.00  0.00     0.120 C 
ATOM     13  CB  PRO A   2      14.499  10.998  -6.127  1.00  0.00     0.037 C 
ATOM     14  CG  PRO A   2      13.201  11.630  -5.633  1.00  0.00     0.024 C 
BRANCH  11  15
ATOM     15  C   SER A   1      15.681  13.139  -3.251  1.00  0.00     0.242 C 
ATOM     16  O   SER A   1      16.738  12.622  -2.796  1.00  0.00    -0.273 OA
BRANCH  15  17
ATOM     17  CA  SER A   1      15.127  14.388  -2.603  1.00  0.00     0.167 C 
BRANCH  17  18
ATOM     18  N   SER A   1      14.318  14.025  -1.438  1.00  0.00    -0.318 NA
ATOM     19  H   UNL     1      14.928  13.590  -0.708  1.00  0.00     0.119 HD
ATOM     20  H   UNL     1      13.907  14.895  -1.028  1.00  0.00     0.119 HD
ENDBRANCH  17  18
BRANCH  17  21
ATOM     21  CB  SER A   1      16.236  15.396  -2.237  1.00  0.00     0.184 C 
BRANCH  21  22
ATOM     22  OG  SER A   1      17.064  14.889  -1.225  1.00  0.00    -0.394 OA
ATOM     23  H   UNL     1      17.752  15.585  -1.058  1.00  0.00     0.210 HD
ENDBRANCH  21  22
ENDBRANCH  17  21
ENDBRANCH  15  17
ENDBRANCH  11  15
ENDBRANCH   7  10
ENDBRANCH   5   6
BRANCH   5  24
ATOM     24  CB  SER A   3      20.121  12.213  -5.172  1.00  0.00     0.191 C 
BRANCH  24  25
ATOM     25  OG  SER A   3      19.459  13.419  -4.900  1.00  0.00    -0.394 OA
ATOM     26  H   UNL     1      19.570  13.992  -5.704  1.00  0.00     0.210 HD
ENDBRANCH  24  25
ENDBRANCH   5  24
ENDBRANCH   1   5
BRANCH   3  27
ATOM     27  CA  LEU A   4      21.345   8.762  -8.135  1.00  0.00     0.171 C 
BRANCH  27  28
ATOM     28  C   LEU A   4      22.711   9.218  -8.517  1.00  0.00     0.243 C 
ATOM     29  N   ARG A   5      23.821   8.720  -7.785  1.00  0.00    -0.343 N 
ATOM     30  O   LEU A   4      22.874  10.033  -9.466  1.00  0.00    -0.273 OA
ATOM     31  H   UNL     1      23.666   8.030  -7.015  1.00  0.00     0.164 HD
BRANCH  29  32
ATOM     32  CA  ARG A   5      25.184   9.122  -8.073  1.00  0.00     0.171 C 
BRANCH  32  33
ATOM     33  C   ARG A   5      25.899   7.968  -8.685  1.00  0.00     0.243 C 
ATOM     34  N   ASN A   6      25.913   7.864 -10.102  1.00  0.00    -0.341 N 
ATOM     35  O   ARG A   5      26.447   7.087  -7.969  1.00  0.00    -0.273 OA
ATOM     36  H   UNL     1      25.488   8.647 -10.651  1.00  0.00     0.164 HD
BRANCH  34  37
ATOM     37  CA  ASN A   6      26.542   6.751 -10.804  1.00  0.00     0.201 C 
BRANCH  37  38
ATOM     38  C   ASN A   6      27.993   6.642 -10.415  1.00  0.00     0.326 C 
ATOM     39  O   ASN A   6      28.794   7.579 -10.677  1.00  0.00    -0.250 OA
BRANCH  38  40
ATOM     40  OXT ASN A   6      28.451   5.499  -9.768  1.00  0.00    -0.480 OA
ATOM     41  H   UNL     1      29.424   5.409  -9.499  1.00  0.00     0.296 HD
ENDBRANCH  38  40
ENDBRANCH  37  38
BRANCH  37  42
ATOM     42  CB  ASN A   6      26.424   6.946 -12.323  1.00  0.00     0.136 C 
BRANCH  42  43
ATOM     43  CG  ASN A   6      25.010   7.181 -12.773  1.00  0.00     0.220 C 
ATOM     44  ND2 ASN A   6      24.753   8.090 -13.833  1.00  0.00    -0.370 N 
ATOM     45  OD1 ASN A   6      24.053   6.558 -12.243  1.00  0.00    -0.275 OA
ATOM     46  H   UNL     1      25.533   8.600 -14.306  1.00  0.00     0.159 HD
ATOM     47  H   UNL     1      23.774   8.258 -14.156  1.00  0.00     0.159 HD
ENDBRANCH  42  43
ENDBRANCH  37  42
ENDBRANCH  34  37
ENDBRANCH  32  33
BRANCH  32  48
ATOM     48  CB  ARG A   5      25.862   9.605  -6.796  1.00  0.00     0.037 C 
BRANCH  48  49
ATOM     49  CG  ARG A   5      25.166  10.860  -6.270  1.00  0.00     0.024 C 
BRANCH  49  50
ATOM     50  CD  ARG A   5      25.842  11.390  -5.014  1.00  0.00     0.116 C 
BRANCH  50  51
ATOM     51  NE  ARG A   5      25.378  10.687  -3.820  1.00  0.00    -0.357 N 
ATOM     52  CZ  ARG A   5      25.470  11.282  -2.526  1.00  0.00     0.185 C 
ATOM     53  NH2 ARG A   5      26.109  12.546  -2.351  1.00  0.00    -0.370 N 
ATOM     54  H   UNL     1      24.899   9.761  -3.912  1.00  0.00     0.163 HD
ATOM     55  H   UNL     1      26.699  12.981  -3.092  1.00  0.00     0.159 HD
ATOM     56  H   UNL     1      26.083  13.022  -1.422  1.00  0.00     0.159 HD
BRANCH  52  57
ATOM     57  NH1 ARG A   5      24.956  10.671  -1.507  1.00  0.00    -0.270 NA
ATOM     58  H   UNL     1      24.998  11.075  -0.544  1.00  0.00     0.191 HD
ENDBRANCH  52  57
ENDBRANCH  50  51
ENDBRANCH  49  50
ENDBRANCH  48  49
ENDBRANCH  32  48
ENDBRANCH  29  32
ENDBRANCH  27  28
BRANCH  27  59
ATOM     59  CB  LEU A   4      20.653   8.000  -9.268  1.00  0.00     0.038 C 
BRANCH  59  60
ATOM     60  CG  LEU A   4      21.448   6.773  -9.767  1.00  0.00    -0.015 C 
ATOM     61  CD1 LEU A   4      21.762   5.779  -8.638  1.00  0.00     0.007 C 
ATOM     62  CD2 LEU A   4      20.661   6.069 -10.876  1.00  0.00     0.007 C 
ENDBRANCH  59  60
ENDBRANCH  27  59
ENDBRANCH   3  27
TORSDOF 26
