REMARK SMILES CC(C)C[C@H](NC(=O)[C@H](C)NC(=O)CNC(=O)[C@@H](N)CO)C(=O)N[C@@H](CCCNC(=N)N)C(=O)N[C@@H](CC(N)=O)C(=O)O
REMARK SMILES IDX 7 1 8 2 6 3 9 5 10 6 11 7 12 8 13 9 14 11 15 12 16 13 17 14
REMARK SMILES IDX 18 16 19 17 20 20 21 21 5 23 22 24 24 25 23 26 25 28 33 29
REMARK SMILES IDX 35 30 34 31 36 33 41 34 42 35 43 36 37 38 38 39 39 40 40 41
REMARK SMILES IDX 26 44 27 45 28 46 29 47 30 48 32 49 31 53 4 55 2 56 1 57
REMARK SMILES IDX 3 58
REMARK H PARENT 6 4 11 10 15 15 19 18 19 19 21 22 24 27 35 32 43 37 39 42
REMARK H PARENT 39 43 29 50 32 51 32 52 31 54
ROOT
ATOM      1  C   ALA A   3      20.045  10.092  -6.456  1.00  0.00     0.242 C 
ATOM      2  O   ALA A   3      20.186   9.190  -5.584  1.00  0.00    -0.273 OA
ATOM      3  N   LEU A   4      20.561   9.921  -7.768  1.00  0.00    -0.343 N 
ATOM      4  H   UNL     1      20.388  10.657  -8.491  1.00  0.00     0.164 HD
ENDROOT
BRANCH   1   5
ATOM      5  CA  ALA A   3      19.313  11.347  -6.134  1.00  0.00     0.168 C 
ATOM      6  CB  ALA A   3      20.126  12.219  -5.185  1.00  0.00     0.041 C 
BRANCH   5   7
ATOM      7  N   ALA A   3      18.043  10.999  -5.528  1.00  0.00    -0.343 N 
ATOM      8  C   GLY A   2      16.868  11.762  -5.741  1.00  0.00     0.240 C 
ATOM      9  O   GLY A   2      16.897  12.807  -6.448  1.00  0.00    -0.273 OA
ATOM     10  H   UNL     1      18.024  10.264  -4.782  1.00  0.00     0.164 HD
BRANCH   8  11
ATOM     11  CA  GLY A   2      15.634  11.328  -5.026  1.00  0.00     0.216 C 
BRANCH  11  12
ATOM     12  N   GLY A   2      14.440  11.725  -5.741  1.00  0.00    -0.346 N 
ATOM     13  C   SER A   1      13.910  13.042  -5.629  1.00  0.00     0.239 C 
ATOM     14  O   SER A   1      14.447  13.867  -4.838  1.00  0.00    -0.273 OA
ATOM     15  H   UNL     1      13.856  10.959  -6.144  1.00  0.00     0.164 HD
BRANCH  13  16
ATOM     16  CA  SER A   1      12.658  13.407  -6.385  1.00  0.00     0.167 C 
BRANCH  16  17
ATOM     17  N   SER A   1      12.456  14.857  -6.404  1.00  0.00    -0.318 NA
ATOM     18  H   UNL     1      12.287  15.192  -5.427  1.00  0.00     0.119 HD
ATOM     19  H   UNL     1      13.319  15.329  -6.762  1.00  0.00     0.119 HD
ENDBRANCH  16  17
BRANCH  16  20
ATOM     20  CB  SER A   1      12.691  12.874  -7.834  1.00  0.00     0.184 C 
BRANCH  20  21
ATOM     21  OG  SER A   1      11.444  13.047  -8.447  1.00  0.00    -0.394 OA
ATOM     22  H   UNL     1      10.839  12.357  -8.066  1.00  0.00     0.210 HD
ENDBRANCH  20  21
ENDBRANCH  16  20
ENDBRANCH  13  16
ENDBRANCH  11  12
ENDBRANCH   8  11
ENDBRANCH   5   7
ENDBRANCH   1   5
BRANCH   3  23
ATOM     23  CA  LEU A   4      21.347   8.760  -8.137  1.00  0.00     0.171 C 
BRANCH  23  24
ATOM     24  C   LEU A   4      22.712   9.217  -8.519  1.00  0.00     0.243 C 
ATOM     25  N   ARG A   5      23.822   8.720  -7.785  1.00  0.00    -0.343 N 
ATOM     26  O   LEU A   4      22.875  10.033  -9.467  1.00  0.00    -0.273 OA
ATOM     27  H   UNL     1      23.667   8.030  -7.015  1.00  0.00     0.164 HD
BRANCH  25  28
ATOM     28  CA  ARG A   5      25.185   9.122  -8.073  1.00  0.00     0.171 C 
BRANCH  28  29
ATOM     29  C   ARG A   5      25.899   7.968  -8.686  1.00  0.00     0.243 C 
ATOM     30  N   ASN A   6      25.913   7.864 -10.102  1.00  0.00    -0.341 N 
ATOM     31  O   ARG A   5      26.447   7.087  -7.969  1.00  0.00    -0.273 OA
ATOM     32  H   UNL     1      25.489   8.647 -10.651  1.00  0.00     0.164 HD
BRANCH  30  33
ATOM     33  CA  ASN A   6      26.542   6.751 -10.804  1.00  0.00     0.201 C 
BRANCH  33  34
ATOM     34  C   ASN A   6      27.993   6.642 -10.416  1.00  0.00     0.326 C 
ATOM     35  O   ASN A   6      28.794   7.579 -10.677  1.00  0.00    -0.250 OA
BRANCH  34  36
ATOM     36  OXT ASN A   6      28.451   5.499  -9.768  1.00  0.00    -0.480 OA
ATOM     37  H   UNL     1      29.424   5.409  -9.500  1.00  0.00     0.296 HD
ENDBRANCH  34  36
ENDBRANCH  33  34
BRANCH  33  38
ATOM     38  CB  ASN A   6      26.424   6.946 -12.323  1.00  0.00     0.136 C 
BRANCH  38  39
ATOM     39  CG  ASN A   6      25.010   7.180 -12.773  1.00  0.00     0.220 C 
ATOM     40  ND2 ASN A   6      24.753   8.090 -13.833  1.00  0.00    -0.370 N 
ATOM     41  OD1 ASN A   6      24.053   6.558 -12.243  1.00  0.00    -0.275 OA
ATOM     42  H   UNL     1      25.533   8.600 -14.306  1.00  0.00     0.159 HD
ATOM     43  H   UNL     1      23.775   8.258 -14.156  1.00  0.00     0.159 HD
ENDBRANCH  38  39
ENDBRANCH  33  38
ENDBRANCH  30  33
ENDBRANCH  28  29
BRANCH  28  44
ATOM     44  CB  ARG A   5      25.863   9.605  -6.796  1.00  0.00     0.037 C 
BRANCH  44  45
ATOM     45  CG  ARG A   5      25.168  10.861  -6.272  1.00  0.00     0.024 C 
BRANCH  45  46
ATOM     46  CD  ARG A   5      25.842  11.391  -5.015  1.00  0.00     0.116 C 
BRANCH  46  47
ATOM     47  NE  ARG A   5      25.378  10.685  -3.823  1.00  0.00    -0.357 N 
ATOM     48  CZ  ARG A   5      25.469  11.279  -2.527  1.00  0.00     0.185 C 
ATOM     49  NH2 ARG A   5      26.106  12.541  -2.350  1.00  0.00    -0.370 N 
ATOM     50  H   UNL     1      24.904   9.757  -3.922  1.00  0.00     0.163 HD
ATOM     51  H   UNL     1      26.083  13.006  -1.415  1.00  0.00     0.159 HD
ATOM     52  H   UNL     1      26.693  12.983  -3.090  1.00  0.00     0.159 HD
BRANCH  48  53
ATOM     53  NH1 ARG A   5      24.959  10.678  -1.500  1.00  0.00    -0.270 NA
ATOM     54  H   UNL     1      24.478   9.755  -1.583  1.00  0.00     0.191 HD
ENDBRANCH  48  53
ENDBRANCH  46  47
ENDBRANCH  45  46
ENDBRANCH  44  45
ENDBRANCH  28  44
ENDBRANCH  25  28
ENDBRANCH  23  24
BRANCH  23  55
ATOM     55  CB  LEU A   4      20.654   7.999  -9.270  1.00  0.00     0.038 C 
BRANCH  55  56
ATOM     56  CG  LEU A   4      21.448   6.772  -9.768  1.00  0.00    -0.015 C 
ATOM     57  CD1 LEU A   4      21.762   5.779  -8.639  1.00  0.00     0.007 C 
ATOM     58  CD2 LEU A   4      20.662   6.068 -10.877  1.00  0.00     0.007 C 
ENDBRANCH  55  56
ENDBRANCH  23  55
ENDBRANCH   3  23
TORSDOF 24
