REMARK SMILES N=C(N)NCCC[C@H](NC(=O)[C@H](CO)NC(=O)[C@@H]1CCCN1C(=O)[C@H](Cc1ccccc1)NC(=O)[C@@H](N)CO)C(=O)N[C@@H](CC(N)=O)C(=O)O
REMARK SMILES IDX 16 1 17 2 15 3 18 5 22 6 21 7 19 8 20 9 23 10 24 11 25 12
REMARK SMILES IDX 33 13 34 14 35 15 36 17 37 18 38 21 39 22 26 24 27 25 28 26
REMARK SMILES IDX 32 27 29 28 31 29 30 30 12 31 10 32 9 33 11 34 8 36 40 37
REMARK SMILES IDX 42 38 41 39 43 41 48 42 49 43 50 44 44 46 45 47 46 48 47 49
REMARK SMILES IDX 7 52 6 53 5 54 4 55 2 56 3 57 1 61 13 63 14 64
REMARK H PARENT 15 4 33 16 37 19 37 20 39 23 9 35 42 40 50 45 46 50 46 51 4 58
REMARK H PARENT 3 59 3 60 1 62 14 65
ROOT
ATOM      1  C   PRO A   3       0.854  -0.503   1.004  1.00  0.00     0.243 C 
ATOM      2  O   PRO A   3       0.900  -1.345   1.949  1.00  0.00    -0.273 OA
ATOM      3  N   SER A   4       0.417   0.840   1.268  1.00  0.00    -0.340 N 
ATOM      4  H   UNL     1       1.156   1.582   1.225  1.00  0.00     0.164 HD
ENDROOT
BRANCH   1   5
ATOM      5  CA  PRO A   3       1.317  -0.871  -0.378  1.00  0.00     0.174 C 
ATOM      6  N   PRO A   3       2.761  -0.792  -0.621  1.00  0.00    -0.329 N 
ATOM      7  CD  PRO A   3       3.015  -1.540  -1.853  1.00  0.00     0.120 C 
ATOM      8  CB  PRO A   3       0.928  -2.287  -0.820  1.00  0.00     0.037 C 
ATOM      9  CG  PRO A   3       1.954  -2.652  -1.894  1.00  0.00     0.024 C 
BRANCH   6  10
ATOM     10  C   PHE A   2       3.790  -0.550   0.374  1.00  0.00     0.246 C 
ATOM     11  O   PHE A   2       3.499  -0.529   1.603  1.00  0.00    -0.272 OA
BRANCH  10  12
ATOM     12  CA  PHE A   2       5.250  -0.431  -0.006  1.00  0.00     0.176 C 
BRANCH  12  13
ATOM     13  N   PHE A   2       5.914   0.570   0.839  1.00  0.00    -0.343 N 
ATOM     14  C   SER A   1       6.935   1.451   0.348  1.00  0.00     0.239 C 
ATOM     15  O   SER A   1       7.125   1.572  -0.891  1.00  0.00    -0.273 OA
ATOM     16  H   UNL     1       5.811   0.496   1.874  1.00  0.00     0.164 HD
BRANCH  14  17
ATOM     17  CA  SER A   1       7.847   2.165   1.322  1.00  0.00     0.167 C 
BRANCH  17  18
ATOM     18  N   SER A   1       9.000   1.325   1.652  1.00  0.00    -0.318 NA
ATOM     19  H   UNL     1       8.653   0.459   2.127  1.00  0.00     0.119 HD
ATOM     20  H   UNL     1       9.478   1.023   0.772  1.00  0.00     0.119 HD
ENDBRANCH  17  18
BRANCH  17  21
ATOM     21  CB  SER A   1       8.330   3.519   0.773  1.00  0.00     0.184 C 
BRANCH  21  22
ATOM     22  OG  SER A   1       9.104   4.187   1.738  1.00  0.00    -0.394 OA
ATOM     23  H   UNL     1      10.026   3.817   1.680  1.00  0.00     0.210 HD
ENDBRANCH  21  22
ENDBRANCH  17  21
ENDBRANCH  14  17
ENDBRANCH  12  13
BRANCH  12  24
ATOM     24  CB  PHE A   2       5.950  -1.795   0.175  1.00  0.00     0.070 C 
BRANCH  24  25
ATOM     25  CG  PHE A   2       7.310  -1.819  -0.484  1.00  0.00    -0.045 A 
ATOM     26  CD1 PHE A   2       7.416  -1.726  -1.883  1.00  0.00     0.004 A 
ATOM     27  CD2 PHE A   2       8.483  -1.920   0.295  1.00  0.00     0.004 A 
ATOM     28  CE1 PHE A   2       8.673  -1.758  -2.502  1.00  0.00     0.000 A 
ATOM     29  CE2 PHE A   2       9.739  -1.961  -0.327  1.00  0.00     0.000 A 
ATOM     30  CZ  PHE A   2       9.831  -1.885  -1.726  1.00  0.00     0.000 A 
ENDBRANCH  24  25
ENDBRANCH  12  24
ENDBRANCH  10  12
ENDBRANCH   6  10
ENDBRANCH   1   5
BRANCH   3  31
ATOM     31  CA  SER A   4      -0.986   1.295   1.354  1.00  0.00     0.197 C 
BRANCH  31  32
ATOM     32  C   SER A   4      -2.048   0.205   1.381  1.00  0.00     0.245 C 
ATOM     33  N   ARG A   5      -3.430   0.575   1.458  1.00  0.00    -0.342 N 
ATOM     34  O   SER A   4      -1.749  -1.023   1.331  1.00  0.00    -0.273 OA
ATOM     35  H   UNL     1      -3.706   1.398   2.042  1.00  0.00     0.164 HD
BRANCH  33  36
ATOM     36  CA  ARG A   5      -4.422  -0.047   0.581  1.00  0.00     0.171 C 
BRANCH  36  37
ATOM     37  C   ARG A   5      -5.236   1.041  -0.086  1.00  0.00     0.243 C 
ATOM     38  N   ASN A   6      -6.402   1.603   0.530  1.00  0.00    -0.341 N 
ATOM     39  O   ARG A   5      -4.789   1.544  -1.150  1.00  0.00    -0.273 OA
ATOM     40  H   UNL     1      -6.891   1.074   1.276  1.00  0.00     0.164 HD
BRANCH  38  41
ATOM     41  CA  ASN A   6      -6.877   2.958   0.233  1.00  0.00     0.201 C 
BRANCH  41  42
ATOM     42  C   ASN A   6      -6.165   3.946   1.122  1.00  0.00     0.326 C 
ATOM     43  O   ASN A   6      -5.908   3.663   2.323  1.00  0.00    -0.250 OA
BRANCH  42  44
ATOM     44  OXT ASN A   6      -5.819   5.196   0.626  1.00  0.00    -0.480 OA
ATOM     45  H   UNL     1      -5.336   5.879   1.202  1.00  0.00     0.296 HD
ENDBRANCH  42  44
ENDBRANCH  41  42
BRANCH  41  46
ATOM     46  CB  ASN A   6      -8.398   3.034   0.431  1.00  0.00     0.136 C 
BRANCH  46  47
ATOM     47  CG  ASN A   6      -8.958   4.384   0.074  1.00  0.00     0.220 C 
ATOM     48  ND2 ASN A   6      -8.850   4.902  -1.257  1.00  0.00    -0.370 N 
ATOM     49  OD1 ASN A   6      -9.559   5.059   0.955  1.00  0.00    -0.275 OA
ATOM     50  H   UNL     1      -9.292   5.814  -1.509  1.00  0.00     0.159 HD
ATOM     51  H   UNL     1      -8.413   4.329  -2.023  1.00  0.00     0.159 HD
ENDBRANCH  46  47
ENDBRANCH  41  46
ENDBRANCH  38  41
ENDBRANCH  36  37
BRANCH  36  52
ATOM     52  CB  ARG A   5      -5.244  -1.079   1.383  1.00  0.00     0.037 C 
BRANCH  52  53
ATOM     53  CG  ARG A   5      -6.293  -1.843   0.551  1.00  0.00     0.024 C 
BRANCH  53  54
ATOM     54  CD  ARG A   5      -5.655  -2.757  -0.504  1.00  0.00     0.116 C 
BRANCH  54  55
ATOM     55  NE  ARG A   5      -6.667  -3.613  -1.122  1.00  0.00    -0.357 N 
ATOM     56  CZ  ARG A   5      -7.172  -4.805  -0.500  1.00  0.00     0.185 C 
ATOM     57  NH2 ARG A   5      -8.150  -5.592  -1.182  1.00  0.00    -0.370 N 
ATOM     58  H   UNL     1      -6.970  -3.387  -2.100  1.00  0.00     0.163 HD
ATOM     59  H   UNL     1      -8.490  -6.496  -0.778  1.00  0.00     0.159 HD
ATOM     60  H   UNL     1      -8.516  -5.279  -2.111  1.00  0.00     0.159 HD
BRANCH  56  61
ATOM     61  NH1 ARG A   5      -6.728  -5.183   0.656  1.00  0.00    -0.270 NA
ATOM     62  H   UNL     1      -7.082  -6.051   1.117  1.00  0.00     0.191 HD
ENDBRANCH  56  61
ENDBRANCH  54  55
ENDBRANCH  53  54
ENDBRANCH  52  53
ENDBRANCH  36  52
ENDBRANCH  33  36
ENDBRANCH  31  32
BRANCH  31  63
ATOM     63  CB  SER A   4      -1.277   2.259   0.193  1.00  0.00     0.191 C 
BRANCH  63  64
ATOM     64  OG  SER A   4      -1.325   1.557  -1.022  1.00  0.00    -0.394 OA
ATOM     65  H   UNL     1      -0.492   1.780  -1.522  1.00  0.00     0.210 HD
ENDBRANCH  63  64
ENDBRANCH  31  63
ENDBRANCH   3  31
TORSDOF 26
