REMARK SMILES CC(C)C[C@H](NC(=O)[C@H](Cc1ccccc1)NC(=O)CN)C(=O)N[C@@H](Cc1c[nH]cn1)C(=O)N[C@@H](CCCNC(=N)N)C(=O)N[C@@H](CC(N)=O)C(=O)O
REMARK SMILES IDX 25 1 24 2 22 3 23 4 5 6 6 7 7 8 8 9 9 11 17 12 18 13 19 14
REMARK SMILES IDX 20 16 21 17 10 20 11 21 12 22 16 23 13 24 15 25 14 26 4 27
REMARK SMILES IDX 2 28 1 29 3 30 32 31 34 32 33 33 35 35 43 36 45 37 44 38
REMARK SMILES IDX 46 40 51 41 52 42 53 43 47 45 48 46 49 47 50 48 36 51 37 52
REMARK SMILES IDX 38 53 39 54 40 55 42 56 41 60 26 62 27 63 31 64 28 65 30 66
REMARK SMILES IDX 29 67
REMARK H PARENT 24 5 6 10 17 15 21 18 21 19 34 34 45 39 53 44 49 49 49 50
REMARK H PARENT 39 57 42 58 42 59 41 61 29 68
ROOT
ATOM      1  CA  HIS A   4      -0.550  -1.426  -0.381  1.00  0.00     0.177 C 
ENDROOT
BRANCH   1   2
ATOM      2  N   HIS A   4       0.454  -0.894   0.549  1.00  0.00    -0.342 N 
ATOM      3  C   LEU A   3       1.488   0.021   0.156  1.00  0.00     0.243 C 
ATOM      4  O   LEU A   3       1.737   0.210  -1.067  1.00  0.00    -0.273 OA
ATOM      5  H   UNL     1       0.403  -1.175   1.555  1.00  0.00     0.164 HD
BRANCH   3   6
ATOM      6  CA  LEU A   3       2.305   0.716   1.220  1.00  0.00     0.171 C 
BRANCH   6   7
ATOM      7  N   LEU A   3       3.432   1.459   0.638  1.00  0.00    -0.343 N 
ATOM      8  C   PHE A   2       4.786   1.297   1.095  1.00  0.00     0.243 C 
ATOM      9  O   PHE A   2       5.024   0.638   2.145  1.00  0.00    -0.273 OA
ATOM     10  H   UNL     1       3.247   2.123  -0.149  1.00  0.00     0.164 HD
BRANCH   8  11
ATOM     11  CA  PHE A   2       5.922   1.847   0.260  1.00  0.00     0.175 C 
BRANCH  11  12
ATOM     12  N   PHE A   2       7.179   1.927   1.019  1.00  0.00    -0.343 N 
ATOM     13  C   GLY A   1       8.240   2.825   0.658  1.00  0.00     0.234 C 
ATOM     14  O   GLY A   1       8.132   3.569  -0.351  1.00  0.00    -0.274 OA
ATOM     15  H   UNL     1       7.353   1.255   1.800  1.00  0.00     0.164 HD
BRANCH  13  16
ATOM     16  CA  GLY A   1       9.511   2.842   1.458  1.00  0.00     0.178 C 
BRANCH  16  17
ATOM     17  N   GLY A   1      10.386   1.733   1.089  1.00  0.00    -0.322 NA
ATOM     18  H   UNL     1      10.635   1.826   0.079  1.00  0.00     0.119 HD
ATOM     19  H   UNL     1       9.869   0.834   1.212  1.00  0.00     0.119 HD
ENDBRANCH  16  17
ENDBRANCH  13  16
ENDBRANCH  11  12
BRANCH  11  20
ATOM     20  CB  PHE A   2       6.108   1.012  -1.023  1.00  0.00     0.070 C 
BRANCH  20  21
ATOM     21  CG  PHE A   2       6.485  -0.421  -0.738  1.00  0.00    -0.045 A 
ATOM     22  CD1 PHE A   2       5.486  -1.397  -0.583  1.00  0.00     0.004 A 
ATOM     23  CD2 PHE A   2       7.833  -0.786  -0.578  1.00  0.00     0.004 A 
ATOM     24  CE1 PHE A   2       5.832  -2.715  -0.271  1.00  0.00     0.000 A 
ATOM     25  CE2 PHE A   2       8.173  -2.106  -0.268  1.00  0.00     0.000 A 
ATOM     26  CZ  PHE A   2       7.173  -3.068  -0.110  1.00  0.00     0.000 A 
ENDBRANCH  20  21
ENDBRANCH  11  20
ENDBRANCH   8  11
ENDBRANCH   6   7
BRANCH   6  27
ATOM     27  CB  LEU A   3       1.445   1.629   2.128  1.00  0.00     0.038 C 
BRANCH  27  28
ATOM     28  CG  LEU A   3       1.004   2.990   1.526  1.00  0.00    -0.015 C 
ATOM     29  CD1 LEU A   3       0.041   2.831   0.344  1.00  0.00     0.007 C 
ATOM     30  CD2 LEU A   3       0.336   3.839   2.615  1.00  0.00     0.007 C 
ENDBRANCH  27  28
ENDBRANCH   6  27
ENDBRANCH   3   6
ENDBRANCH   1   2
BRANCH   1  31
ATOM     31  C   HIS A   4      -1.942  -1.041   0.059  1.00  0.00     0.243 C 
ATOM     32  N   ARG A   5      -3.035  -1.148  -0.864  1.00  0.00    -0.343 N 
ATOM     33  O   HIS A   4      -2.145  -0.637   1.236  1.00  0.00    -0.273 OA
ATOM     34  H   UNL     1      -2.870  -1.616  -1.782  1.00  0.00     0.164 HD
BRANCH  32  35
ATOM     35  CA  ARG A   5      -4.379  -0.650  -0.563  1.00  0.00     0.171 C 
BRANCH  35  36
ATOM     36  C   ARG A   5      -5.285  -1.816  -0.240  1.00  0.00     0.243 C 
ATOM     37  N   ASN A   6      -6.097  -2.464  -1.240  1.00  0.00    -0.341 N 
ATOM     38  O   ARG A   5      -5.269  -2.268   0.940  1.00  0.00    -0.273 OA
ATOM     39  H   UNL     1      -6.082  -2.115  -2.225  1.00  0.00     0.164 HD
BRANCH  37  40
ATOM     40  CA  ASN A   6      -7.070  -3.509  -0.896  1.00  0.00     0.201 C 
BRANCH  40  41
ATOM     41  C   ASN A   6      -7.055  -4.614  -1.917  1.00  0.00     0.326 C 
ATOM     42  O   ASN A   6      -6.957  -4.356  -3.148  1.00  0.00    -0.250 OA
BRANCH  41  43
ATOM     43  OXT ASN A   6      -7.193  -5.933  -1.500  1.00  0.00    -0.480 OA
ATOM     44  H   UNL     1      -7.202  -6.689  -2.173  1.00  0.00     0.296 HD
ENDBRANCH  41  43
ENDBRANCH  40  41
BRANCH  40  45
ATOM     45  CB  ASN A   6      -8.480  -2.912  -0.722  1.00  0.00     0.136 C 
BRANCH  45  46
ATOM     46  CG  ASN A   6      -8.981  -2.225  -1.961  1.00  0.00     0.220 C 
ATOM     47  ND2 ASN A   6      -8.711  -0.840  -2.177  1.00  0.00    -0.370 N 
ATOM     48  OD1 ASN A   6      -9.613  -2.877  -2.830  1.00  0.00    -0.275 OA
ATOM     49  H   UNL     1      -8.182  -0.290  -1.466  1.00  0.00     0.159 HD
ATOM     50  H   UNL     1      -9.027  -0.371  -3.056  1.00  0.00     0.159 HD
ENDBRANCH  45  46
ENDBRANCH  40  45
ENDBRANCH  37  40
ENDBRANCH  35  36
BRANCH  35  51
ATOM     51  CB  ARG A   5      -4.885   0.244  -1.716  1.00  0.00     0.037 C 
BRANCH  51  52
ATOM     52  CG  ARG A   5      -3.998   1.479  -1.961  1.00  0.00     0.024 C 
BRANCH  52  53
ATOM     53  CD  ARG A   5      -4.060   2.511  -0.824  1.00  0.00     0.116 C 
BRANCH  53  54
ATOM     54  NE  ARG A   5      -3.285   3.707  -1.164  1.00  0.00    -0.357 N 
ATOM     55  CZ  ARG A   5      -3.149   4.847  -0.295  1.00  0.00     0.185 C 
ATOM     56  NH2 ARG A   5      -2.334   5.949  -0.709  1.00  0.00    -0.370 N 
ATOM     57  H   UNL     1      -2.782   3.741  -2.079  1.00  0.00     0.163 HD
ATOM     58  H   UNL     1      -2.207   6.782  -0.091  1.00  0.00     0.159 HD
ATOM     59  H   UNL     1      -1.826   5.923  -1.625  1.00  0.00     0.159 HD
BRANCH  55  60
ATOM     60  NH1 ARG A   5      -3.732   4.894   0.860  1.00  0.00    -0.270 NA
ATOM     61  H   UNL     1      -4.333   4.125   1.229  1.00  0.00     0.191 HD
ENDBRANCH  55  60
ENDBRANCH  53  54
ENDBRANCH  52  53
ENDBRANCH  51  52
ENDBRANCH  35  51
ENDBRANCH  32  35
ENDBRANCH   1  31
BRANCH   1  62
ATOM     62  CB  HIS A   4      -0.402  -2.951  -0.517  1.00  0.00     0.093 C 
BRANCH  62  63
ATOM     63  CG  HIS A   4      -0.641  -3.678   0.776  1.00  0.00     0.061 A 
ATOM     64  ND1 HIS A   4       0.324  -3.964   1.671  1.00  0.00    -0.242 NA
ATOM     65  CD2 HIS A   4      -1.863  -4.092   1.257  1.00  0.00     0.107 A 
ATOM     66  CE1 HIS A   4      -0.336  -4.568   2.679  1.00  0.00     0.196 A 
ATOM     67  NE2 HIS A   4      -1.659  -4.661   2.454  1.00  0.00    -0.351 N 
ATOM     68  H   UNL     1      -2.375  -5.084   3.082  1.00  0.00     0.167 HD
ENDBRANCH  62  63
ENDBRANCH   1  62
TORSDOF 26
