REMARK SMILES CC(C)[C@H](NC(=O)CNC(=O)[C@H](Cc1ccccc1)NC(=O)[C@@H](N)CO)C(=O)N[C@@H](CCCNC(=N)N)C(=O)N[C@@H](CC(N)=O)C(=O)O
REMARK SMILES IDX 6 1 7 2 5 3 8 5 9 6 10 7 11 8 12 10 20 11 21 12 22 13 23 15
REMARK SMILES IDX 24 16 25 19 26 20 13 22 14 23 15 24 19 25 16 26 18 27 17 28
REMARK SMILES IDX 4 29 27 30 29 31 28 32 30 34 38 35 40 36 39 37 41 39 46 40
REMARK SMILES IDX 47 41 48 42 42 44 43 45 44 46 45 47 31 50 32 51 33 52 34 53
REMARK SMILES IDX 35 54 37 55 36 59 2 61 1 62 3 63
REMARK H PARENT 5 4 9 9 20 14 24 17 24 18 26 21 29 33 40 38 48 43 44 48 44 49
REMARK H PARENT 34 56 37 57 37 58 36 60
ROOT
ATOM      1  C   GLY A   3       1.919  -0.387  -2.160  1.00  0.00     0.240 C 
ATOM      2  O   GLY A   3       1.571   0.444  -3.044  1.00  0.00    -0.273 OA
ATOM      3  N   VAL A   4       0.939  -0.973  -1.289  1.00  0.00    -0.343 N 
ATOM      4  H   UNL     1       1.285  -1.580  -0.511  1.00  0.00     0.164 HD
ENDROOT
BRANCH   1   5
ATOM      5  CA  GLY A   3       3.361  -0.773  -2.035  1.00  0.00     0.216 C 
BRANCH   5   6
ATOM      6  N   GLY A   3       3.879  -0.416  -0.720  1.00  0.00    -0.345 N 
ATOM      7  C   PHE A   2       4.175   0.941  -0.355  1.00  0.00     0.243 C 
ATOM      8  O   PHE A   2       3.736   1.886  -1.063  1.00  0.00    -0.273 OA
ATOM      9  H   UNL     1       4.116  -1.188  -0.057  1.00  0.00     0.164 HD
BRANCH   7  10
ATOM     10  CA  PHE A   2       4.952   1.226   0.912  1.00  0.00     0.175 C 
BRANCH  10  11
ATOM     11  N   PHE A   2       6.061   0.275   1.044  1.00  0.00    -0.343 N 
ATOM     12  C   SER A   1       6.527  -0.196   2.318  1.00  0.00     0.239 C 
ATOM     13  O   SER A   1       6.077   0.312   3.382  1.00  0.00    -0.273 OA
ATOM     14  H   UNL     1       6.546  -0.052   0.176  1.00  0.00     0.164 HD
BRANCH  12  15
ATOM     15  CA  SER A   1       7.548  -1.305   2.406  1.00  0.00     0.167 C 
BRANCH  15  16
ATOM     16  N   SER A   1       7.060  -2.491   1.698  1.00  0.00    -0.318 NA
ATOM     17  H   UNL     1       7.092  -2.321   0.665  1.00  0.00     0.119 HD
ATOM     18  H   UNL     1       7.712  -3.286   1.894  1.00  0.00     0.119 HD
ENDBRANCH  15  16
BRANCH  15  19
ATOM     19  CB  SER A   1       8.918  -0.855   1.863  1.00  0.00     0.184 C 
BRANCH  19  20
ATOM     20  OG  SER A   1       9.412   0.231   2.601  1.00  0.00    -0.394 OA
ATOM     21  H   UNL     1       9.706  -0.129   3.478  1.00  0.00     0.210 HD
ENDBRANCH  19  20
ENDBRANCH  15  19
ENDBRANCH  12  15
ENDBRANCH  10  11
BRANCH  10  22
ATOM     22  CB  PHE A   2       5.471   2.681   1.022  1.00  0.00     0.070 C 
BRANCH  22  23
ATOM     23  CG  PHE A   2       6.478   3.050  -0.045  1.00  0.00    -0.045 A 
ATOM     24  CD1 PHE A   2       6.095   3.834  -1.149  1.00  0.00     0.004 A 
ATOM     25  CD2 PHE A   2       7.816   2.637   0.067  1.00  0.00     0.004 A 
ATOM     26  CE1 PHE A   2       7.027   4.166  -2.138  1.00  0.00     0.000 A 
ATOM     27  CE2 PHE A   2       8.743   2.967  -0.926  1.00  0.00     0.000 A 
ATOM     28  CZ  PHE A   2       8.348   3.726  -2.031  1.00  0.00     0.000 A 
ENDBRANCH  22  23
ENDBRANCH  10  22
ENDBRANCH   7  10
ENDBRANCH   5   6
ENDBRANCH   1   5
BRANCH   3  29
ATOM     29  CA  VAL A   4      -0.482  -1.029  -1.656  1.00  0.00     0.174 C 
BRANCH  29  30
ATOM     30  C   VAL A   4      -1.360  -0.988  -0.424  1.00  0.00     0.243 C 
ATOM     31  N   ARG A   5      -2.657  -0.375  -0.492  1.00  0.00    -0.343 N 
ATOM     32  O   VAL A   4      -0.971  -1.529   0.649  1.00  0.00    -0.273 OA
ATOM     33  H   UNL     1      -2.904   0.164  -1.353  1.00  0.00     0.164 HD
BRANCH  31  34
ATOM     34  CA  ARG A   5      -3.675  -0.539   0.553  1.00  0.00     0.171 C 
BRANCH  34  35
ATOM     35  C   ARG A   5      -4.952  -1.110  -0.015  1.00  0.00     0.243 C 
ATOM     36  N   ASN A   6      -5.979  -1.582   0.871  1.00  0.00    -0.341 N 
ATOM     37  O   ARG A   5      -5.110  -1.192  -1.265  1.00  0.00    -0.273 OA
ATOM     38  H   UNL     1      -5.806  -1.548   1.901  1.00  0.00     0.164 HD
BRANCH  36  39
ATOM     39  CA  ASN A   6      -7.280  -2.062   0.397  1.00  0.00     0.201 C 
BRANCH  39  40
ATOM     40  C   ASN A   6      -8.348  -1.083   0.792  1.00  0.00     0.326 C 
ATOM     41  O   ASN A   6      -8.484  -0.742   1.997  1.00  0.00    -0.250 OA
BRANCH  40  42
ATOM     42  OXT ASN A   6      -9.198  -0.559  -0.178  1.00  0.00    -0.480 OA
ATOM     43  H   UNL     1      -9.920   0.108   0.070  1.00  0.00     0.296 HD
ENDBRANCH  40  42
ENDBRANCH  39  40
BRANCH  39  44
ATOM     44  CB  ASN A   6      -7.585  -3.454   0.981  1.00  0.00     0.136 C 
BRANCH  44  45
ATOM     45  CG  ASN A   6      -6.513  -4.460   0.651  1.00  0.00     0.220 C 
ATOM     46  ND2 ASN A   6      -6.155  -5.466   1.600  1.00  0.00    -0.370 N 
ATOM     47  OD1 ASN A   6      -5.945  -4.440  -0.476  1.00  0.00    -0.275 OA
ATOM     48  H   UNL     1      -5.396  -6.149   1.383  1.00  0.00     0.159 HD
ATOM     49  H   UNL     1      -6.661  -5.545   2.513  1.00  0.00     0.159 HD
ENDBRANCH  44  45
ENDBRANCH  39  44
ENDBRANCH  36  39
ENDBRANCH  34  35
BRANCH  34  50
ATOM     50  CB  ARG A   5      -3.905   0.781   1.323  1.00  0.00     0.037 C 
BRANCH  50  51
ATOM     51  CG  ARG A   5      -4.240   2.022   0.474  1.00  0.00     0.024 C 
BRANCH  51  52
ATOM     52  CD  ARG A   5      -5.633   1.973  -0.165  1.00  0.00     0.116 C 
BRANCH  52  53
ATOM     53  NE  ARG A   5      -6.037   3.308  -0.602  1.00  0.00    -0.357 N 
ATOM     54  CZ  ARG A   5      -6.557   4.301   0.293  1.00  0.00     0.185 C 
ATOM     55  NH2 ARG A   5      -6.885   5.601  -0.207  1.00  0.00    -0.370 N 
ATOM     56  H   UNL     1      -5.989   3.529  -1.622  1.00  0.00     0.163 HD
ATOM     57  H   UNL     1      -7.306   6.328   0.416  1.00  0.00     0.159 HD
ATOM     58  H   UNL     1      -6.697   5.841  -1.208  1.00  0.00     0.159 HD
BRANCH  54  59
ATOM     59  NH1 ARG A   5      -6.736   4.024   1.548  1.00  0.00    -0.270 NA
ATOM     60  H   UNL     1      -7.118   4.727   2.217  1.00  0.00     0.191 HD
ENDBRANCH  54  59
ENDBRANCH  52  53
ENDBRANCH  51  52
ENDBRANCH  50  51
ENDBRANCH  34  50
ENDBRANCH  31  34
ENDBRANCH  29  30
BRANCH  29  61
ATOM     61  CB  VAL A   4      -0.757  -2.277  -2.545  1.00  0.00     0.015 C 
ATOM     62  CG1 VAL A   4      -0.483  -3.602  -1.817  1.00  0.00     0.010 C 
ATOM     63  CG2 VAL A   4      -2.182  -2.274  -3.116  1.00  0.00     0.010 C 
ENDBRANCH  29  61
ENDBRANCH   3  29
TORSDOF 25
