REMARK SMILES CC(C)C[C@H](NC(=O)[C@H](CC(N)=O)NC(=O)[C@H](Cc1ccccc1)NC(=O)[C@@H](N)CO)C(=O)N[C@@H](CCCNC(=N)N)C(=O)N[C@@H](C)C(=O)O
REMARK SMILES IDX 7 1 8 2 6 3 9 5 14 6 15 7 16 8 17 10 25 11 26 12 27 13 28 15
REMARK SMILES IDX 29 16 30 19 31 20 18 22 19 23 20 24 24 25 21 26 23 27 22 28
REMARK SMILES IDX 10 29 11 30 12 31 13 32 5 35 32 36 34 37 33 38 35 40 43 41
REMARK SMILES IDX 45 42 44 43 46 45 47 46 48 47 49 48 50 49 36 51 37 52 38 53
REMARK SMILES IDX 39 54 40 55 42 56 41 60 4 62 2 63 1 64 3 65
REMARK H PARENT 6 4 14 9 25 14 29 17 29 18 31 21 12 33 12 34 34 39 45 44 50 50
REMARK H PARENT 39 57 42 58 42 59 41 61
ROOT
ATOM      1  C   ASN A   3      20.052  10.095  -6.459  1.00  0.00     0.243 C 
ATOM      2  O   ASN A   3      20.170   9.183  -5.594  1.00  0.00    -0.273 OA
ATOM      3  N   LEU A   4      20.563   9.921  -7.771  1.00  0.00    -0.342 N 
ATOM      4  H   UNL     1      20.395  10.659  -8.493  1.00  0.00     0.164 HD
ENDROOT
BRANCH   1   5
ATOM      5  CA  ASN A   3      19.347  11.367  -6.130  1.00  0.00     0.180 C 
BRANCH   5   6
ATOM      6  N   ASN A   3      18.090  11.044  -5.508  1.00  0.00    -0.342 N 
ATOM      7  C   PHE A   2      16.888  11.749  -5.774  1.00  0.00     0.243 C 
ATOM      8  O   PHE A   2      16.903  12.793  -6.483  1.00  0.00    -0.273 OA
ATOM      9  H   UNL     1      18.165  10.485  -4.632  1.00  0.00     0.164 HD
BRANCH   7  10
ATOM     10  CA  PHE A   2      15.653  11.312  -5.059  1.00  0.00     0.175 C 
BRANCH  10  11
ATOM     11  N   PHE A   2      14.456  11.740  -5.769  1.00  0.00    -0.343 N 
ATOM     12  C   SER A   1      13.917  13.049  -5.633  1.00  0.00     0.239 C 
ATOM     13  O   SER A   1      14.448  13.866  -4.831  1.00  0.00    -0.273 OA
ATOM     14  H   UNL     1      13.872  11.001  -6.218  1.00  0.00     0.164 HD
BRANCH  12  15
ATOM     15  CA  SER A   1      12.661  13.412  -6.387  1.00  0.00     0.167 C 
BRANCH  15  16
ATOM     16  N   SER A   1      12.457  14.862  -6.398  1.00  0.00    -0.318 NA
ATOM     17  H   UNL     1      13.318  15.337  -6.758  1.00  0.00     0.119 HD
ATOM     18  H   UNL     1      12.292  15.192  -5.418  1.00  0.00     0.119 HD
ENDBRANCH  15  16
BRANCH  15  19
ATOM     19  CB  SER A   1      12.690  12.888  -7.841  1.00  0.00     0.184 C 
BRANCH  19  20
ATOM     20  OG  SER A   1      11.437  13.050  -8.444  1.00  0.00    -0.394 OA
ATOM     21  H   UNL     1      11.385  13.993  -8.750  1.00  0.00     0.210 HD
ENDBRANCH  19  20
ENDBRANCH  15  19
ENDBRANCH  12  15
ENDBRANCH  10  11
BRANCH  10  22
ATOM     22  CB  PHE A   2      15.613   9.773  -4.890  1.00  0.00     0.070 C 
BRANCH  22  23
ATOM     23  CG  PHE A   2      14.443   9.290  -4.091  1.00  0.00    -0.045 A 
ATOM     24  CD1 PHE A   2      13.903  10.047  -3.033  1.00  0.00     0.004 A 
ATOM     25  CD2 PHE A   2      13.968   7.990  -4.310  1.00  0.00     0.004 A 
ATOM     26  CE1 PHE A   2      12.869   9.536  -2.260  1.00  0.00     0.000 A 
ATOM     27  CE2 PHE A   2      12.939   7.477  -3.521  1.00  0.00     0.000 A 
ATOM     28  CZ  PHE A   2      12.386   8.252  -2.502  1.00  0.00     0.000 A 
ENDBRANCH  22  23
ENDBRANCH  10  22
ENDBRANCH   7  10
ENDBRANCH   5   6
BRANCH   5  29
ATOM     29  CB  ASN A   3      20.177  12.264  -5.201  1.00  0.00     0.134 C 
BRANCH  29  30
ATOM     30  CG  ASN A   3      20.422  11.674  -3.834  1.00  0.00     0.220 C 
ATOM     31  ND2 ASN A   3      21.598  10.906  -3.576  1.00  0.00    -0.370 N 
ATOM     32  OD1 ASN A   3      19.585  11.861  -2.910  1.00  0.00    -0.275 OA
ATOM     33  H   UNL     1      22.302  10.741  -4.328  1.00  0.00     0.159 HD
ATOM     34  H   UNL     1      21.767  10.502  -2.628  1.00  0.00     0.159 HD
ENDBRANCH  29  30
ENDBRANCH   5  29
ENDBRANCH   1   5
BRANCH   3  35
ATOM     35  CA  LEU A   4      21.348   8.760  -8.138  1.00  0.00     0.171 C 
BRANCH  35  36
ATOM     36  C   LEU A   4      22.713   9.217  -8.520  1.00  0.00     0.243 C 
ATOM     37  N   ARG A   5      23.823   8.720  -7.787  1.00  0.00    -0.343 N 
ATOM     38  O   LEU A   4      22.876  10.034  -9.467  1.00  0.00    -0.273 OA
ATOM     39  H   UNL     1      23.668   8.031  -7.016  1.00  0.00     0.164 HD
BRANCH  37  40
ATOM     40  CA  ARG A   5      25.186   9.120  -8.078  1.00  0.00     0.171 C 
BRANCH  40  41
ATOM     41  C   ARG A   5      25.897   7.963  -8.692  1.00  0.00     0.243 C 
ATOM     42  N   ALA A   6      25.884   7.840 -10.110  1.00  0.00    -0.341 N 
ATOM     43  O   ARG A   5      26.455   7.090  -7.974  1.00  0.00    -0.273 OA
ATOM     44  H   UNL     1      25.367   8.562 -10.663  1.00  0.00     0.164 HD
BRANCH  42  45
ATOM     45  CA  ALA A   6      26.544   6.745 -10.813  1.00  0.00     0.189 C 
ATOM     46  CB  ALA A   6      26.419   6.955 -12.323  1.00  0.00     0.043 C 
BRANCH  45  47
ATOM     47  C   ALA A   6      27.993   6.651 -10.418  1.00  0.00     0.325 C 
ATOM     48  O   ALA A   6      28.790   7.589 -10.686  1.00  0.00    -0.250 OA
BRANCH  47  49
ATOM     49  OXT ALA A   6      28.456   5.520  -9.752  1.00  0.00    -0.480 OA
ATOM     50  H   UNL     1      29.427   5.440  -9.477  1.00  0.00     0.296 HD
ENDBRANCH  47  49
ENDBRANCH  45  47
ENDBRANCH  42  45
ENDBRANCH  40  41
BRANCH  40  51
ATOM     51  CB  ARG A   5      25.865   9.604  -6.801  1.00  0.00     0.037 C 
BRANCH  51  52
ATOM     52  CG  ARG A   5      25.169  10.859  -6.273  1.00  0.00     0.024 C 
BRANCH  52  53
ATOM     53  CD  ARG A   5      25.841  11.389  -5.015  1.00  0.00     0.116 C 
BRANCH  53  54
ATOM     54  NE  ARG A   5      25.376  10.686  -3.822  1.00  0.00    -0.357 N 
ATOM     55  CZ  ARG A   5      25.468  11.281  -2.528  1.00  0.00     0.185 C 
ATOM     56  NH2 ARG A   5      26.108  12.545  -2.352  1.00  0.00    -0.370 N 
ATOM     57  H   UNL     1      24.894   9.763  -3.914  1.00  0.00     0.163 HD
ATOM     58  H   UNL     1      26.698  12.981  -3.094  1.00  0.00     0.159 HD
ATOM     59  H   UNL     1      26.083  13.021  -1.423  1.00  0.00     0.159 HD
BRANCH  55  60
ATOM     60  NH1 ARG A   5      24.954  10.671  -1.508  1.00  0.00    -0.270 NA
ATOM     61  H   UNL     1      24.997  11.075  -0.546  1.00  0.00     0.191 HD
ENDBRANCH  55  60
ENDBRANCH  53  54
ENDBRANCH  52  53
ENDBRANCH  51  52
ENDBRANCH  40  51
ENDBRANCH  37  40
ENDBRANCH  35  36
BRANCH  35  62
ATOM     62  CB  LEU A   4      20.656   7.999  -9.272  1.00  0.00     0.038 C 
BRANCH  62  63
ATOM     63  CG  LEU A   4      21.449   6.771  -9.770  1.00  0.00    -0.015 C 
ATOM     64  CD1 LEU A   4      21.763   5.779  -8.640  1.00  0.00     0.007 C 
ATOM     65  CD2 LEU A   4      20.659   6.066 -10.876  1.00  0.00     0.007 C 
ENDBRANCH  62  63
ENDBRANCH  35  62
ENDBRANCH   3  35
TORSDOF 26
