REMARK SMILES CC(C)C[C@H](NC(=O)[C@H](Cc1ccccc1)NC(=O)[C@@H](N)CO)C(=O)N[C@@H](Cc1c[nH]cn1)C(=O)N[C@@H](Cc1c[nH]cn1)C(=O)N[C@@H](CC(N)=O)C(=O)O
REMARK SMILES IDX 24 1 25 2 26 3 5 5 6 6 7 7 8 8 9 10 17 11 18 12 19 13 20 15
REMARK SMILES IDX 21 16 22 19 23 20 10 22 11 23 12 24 16 25 13 26 15 27 14 28
REMARK SMILES IDX 4 29 2 30 1 31 3 32 27 33 34 34 36 35 35 36 37 38 44 39
REMARK SMILES IDX 46 40 45 41 47 43 52 44 53 45 54 46 48 48 49 49 50 50 51 51
REMARK SMILES IDX 38 54 39 55 43 56 40 57 42 58 41 59 28 61 29 62 33 63 30 64
REMARK SMILES IDX 32 65 31 66
REMARK H PARENT 26 4 6 9 17 14 21 17 21 18 23 21 36 37 46 42 54 47 50 52 50 53
REMARK H PARENT 41 60 31 67
ROOT
ATOM      1  C   LEU A   3      -0.416  -0.262   0.026  1.00  0.00     0.243 C 
ATOM      2  O   LEU A   3      -0.674   0.541  -0.915  1.00  0.00    -0.273 OA
ATOM      3  N   HIS A   4       0.932  -0.398   0.499  1.00  0.00    -0.342 N 
ATOM      4  H   UNL     1       1.164  -1.210   1.118  1.00  0.00     0.164 HD
ENDROOT
BRANCH   1   5
ATOM      5  CA  LEU A   3      -1.518  -1.060   0.673  1.00  0.00     0.171 C 
BRANCH   5   6
ATOM      6  N   LEU A   3      -2.844  -0.504   0.368  1.00  0.00    -0.343 N 
ATOM      7  C   PHE A   2      -3.933  -0.546   1.302  1.00  0.00     0.243 C 
ATOM      8  O   PHE A   2      -3.737  -0.909   2.493  1.00  0.00    -0.273 OA
ATOM      9  H   UNL     1      -3.038  -0.106  -0.577  1.00  0.00     0.164 HD
BRANCH   7  10
ATOM     10  CA  PHE A   2      -5.303  -0.105   0.860  1.00  0.00     0.175 C 
BRANCH  10  11
ATOM     11  N   PHE A   2      -6.333  -0.641   1.757  1.00  0.00    -0.343 N 
ATOM     12  C   SER A   1      -7.412  -1.467   1.291  1.00  0.00     0.239 C 
ATOM     13  O   SER A   1      -7.346  -2.023   0.159  1.00  0.00    -0.273 OA
ATOM     14  H   UNL     1      -6.341  -0.322   2.752  1.00  0.00     0.164 HD
BRANCH  12  15
ATOM     15  CA  SER A   1      -8.614  -1.704   2.173  1.00  0.00     0.167 C 
BRANCH  15  16
ATOM     16  N   SER A   1      -9.858  -1.477   1.432  1.00  0.00    -0.318 NA
ATOM     17  H   UNL     1      -9.853  -0.499   1.060  1.00  0.00     0.119 HD
ATOM     18  H   UNL     1      -9.900  -2.121   0.607  1.00  0.00     0.119 HD
ENDBRANCH  15  16
BRANCH  15  19
ATOM     19  CB  SER A   1      -8.591  -3.124   2.750  1.00  0.00     0.184 C 
BRANCH  19  20
ATOM     20  OG  SER A   1      -7.457  -3.294   3.556  1.00  0.00    -0.394 OA
ATOM     21  H   UNL     1      -7.504  -4.220   3.912  1.00  0.00     0.210 HD
ENDBRANCH  19  20
ENDBRANCH  15  19
ENDBRANCH  12  15
ENDBRANCH  10  11
BRANCH  10  22
ATOM     22  CB  PHE A   2      -5.386   1.428   0.823  1.00  0.00     0.070 C 
BRANCH  22  23
ATOM     23  CG  PHE A   2      -6.702   1.882   0.245  1.00  0.00    -0.045 A 
ATOM     24  CD1 PHE A   2      -7.790   2.165   1.088  1.00  0.00     0.004 A 
ATOM     25  CD2 PHE A   2      -6.876   1.950  -1.148  1.00  0.00     0.004 A 
ATOM     26  CE1 PHE A   2      -9.027   2.525   0.544  1.00  0.00     0.000 A 
ATOM     27  CE2 PHE A   2      -8.118   2.300  -1.687  1.00  0.00     0.000 A 
ATOM     28  CZ  PHE A   2      -9.192   2.591  -0.843  1.00  0.00     0.000 A 
ENDBRANCH  22  23
ENDBRANCH  10  22
ENDBRANCH   7  10
ENDBRANCH   5   6
BRANCH   5  29
ATOM     29  CB  LEU A   3      -1.459  -2.578   0.369  1.00  0.00     0.038 C 
BRANCH  29  30
ATOM     30  CG  LEU A   3      -1.364  -3.048  -1.109  1.00  0.00    -0.015 C 
ATOM     31  CD1 LEU A   3      -2.423  -2.429  -2.026  1.00  0.00     0.007 C 
ATOM     32  CD2 LEU A   3       0.044  -2.900  -1.706  1.00  0.00     0.007 C 
ENDBRANCH  29  30
ENDBRANCH   5  29
ENDBRANCH   1   5
BRANCH   3  33
ATOM     33  CA  HIS A   4       1.889   0.709   0.421  1.00  0.00     0.177 C 
BRANCH  33  34
ATOM     34  C   HIS A   4       3.217   0.199  -0.070  1.00  0.00     0.243 C 
ATOM     35  N   HIS A   5       3.791   0.731  -1.273  1.00  0.00    -0.342 N 
ATOM     36  O   HIS A   4       3.825  -0.693   0.581  1.00  0.00    -0.273 OA
ATOM     37  H   UNL     1       3.261   1.467  -1.798  1.00  0.00     0.164 HD
BRANCH  35  38
ATOM     38  CA  HIS A   5       5.142   0.375  -1.718  1.00  0.00     0.177 C 
BRANCH  38  39
ATOM     39  C   HIS A   5       6.166   1.026  -0.822  1.00  0.00     0.243 C 
ATOM     40  N   ASN A   6       7.406   0.356  -0.544  1.00  0.00    -0.340 N 
ATOM     41  O   HIS A   5       5.945   2.173  -0.344  1.00  0.00    -0.273 OA
ATOM     42  H   UNL     1       7.586  -0.562  -1.010  1.00  0.00     0.164 HD
BRANCH  40  43
ATOM     43  CA  ASN A   6       8.411   0.917   0.368  1.00  0.00     0.201 C 
BRANCH  43  44
ATOM     44  C   ASN A   6       9.039   2.137  -0.244  1.00  0.00     0.326 C 
ATOM     45  O   ASN A   6       9.391   2.136  -1.456  1.00  0.00    -0.250 OA
BRANCH  44  46
ATOM     46  OXT ASN A   6       9.255   3.267   0.539  1.00  0.00    -0.480 OA
ATOM     47  H   UNL     1       9.676   4.099   0.144  1.00  0.00     0.296 HD
ENDBRANCH  44  46
ENDBRANCH  43  44
BRANCH  43  48
ATOM     48  CB  ASN A   6       9.503  -0.118   0.689  1.00  0.00     0.136 C 
BRANCH  48  49
ATOM     49  CG  ASN A   6       8.940  -1.293   1.435  1.00  0.00     0.220 C 
ATOM     50  ND2 ASN A   6       8.622  -1.182   2.822  1.00  0.00    -0.370 N 
ATOM     51  OD1 ASN A   6       8.734  -2.379   0.831  1.00  0.00    -0.275 OA
ATOM     52  H   UNL     1       8.793  -0.290   3.338  1.00  0.00     0.159 HD
ATOM     53  H   UNL     1       8.228  -1.999   3.338  1.00  0.00     0.159 HD
ENDBRANCH  48  49
ENDBRANCH  43  48
ENDBRANCH  40  43
ENDBRANCH  38  39
BRANCH  38  54
ATOM     54  CB  HIS A   5       5.345   0.807  -3.183  1.00  0.00     0.093 C 
BRANCH  54  55
ATOM     55  CG  HIS A   5       6.657   0.329  -3.733  1.00  0.00     0.061 A 
ATOM     56  ND1 HIS A   5       6.968  -0.969  -3.926  1.00  0.00    -0.242 NA
ATOM     57  CD2 HIS A   5       7.730   1.123  -4.074  1.00  0.00     0.107 A 
ATOM     58  CE1 HIS A   5       8.237  -0.933  -4.388  1.00  0.00     0.196 A 
ATOM     59  NE2 HIS A   5       8.722   0.319  -4.486  1.00  0.00    -0.351 N 
ATOM     60  H   UNL     1       9.673   0.603  -4.808  1.00  0.00     0.167 HD
ENDBRANCH  54  55
ENDBRANCH  38  54
ENDBRANCH  35  38
ENDBRANCH  33  34
BRANCH  33  61
ATOM     61  CB  HIS A   4       2.037   1.380   1.797  1.00  0.00     0.093 C 
BRANCH  61  62
ATOM     62  CG  HIS A   4       0.714   1.886   2.291  1.00  0.00     0.061 A 
ATOM     63  ND1 HIS A   4      -0.027   1.264   3.230  1.00  0.00    -0.242 NA
ATOM     64  CD2 HIS A   4       0.023   2.964   1.786  1.00  0.00     0.107 A 
ATOM     65  CE1 HIS A   4      -1.160   1.995   3.285  1.00  0.00     0.196 A 
ATOM     66  NE2 HIS A   4      -1.157   3.027   2.421  1.00  0.00    -0.351 N 
ATOM     67  H   UNL     1      -1.921   3.720   2.265  1.00  0.00     0.167 HD
ENDBRANCH  61  62
ENDBRANCH  33  61
ENDBRANCH   3  33
TORSDOF 25
