REMARK SMILES CC(C)C[C@H](NC(=O)[C@H](CC(N)=O)NC(=O)[C@H](Cc1ccccc1)NC(=O)[C@H](C)N)C(=O)N[C@@H](CCCNC(=N)N)C(=O)N[C@@H](CC(N)=O)C(=O)O
REMARK SMILES IDX 5 1 6 2 7 3 8 4 9 6 14 7 15 8 16 9 17 11 25 12 26 13 27 14
REMARK SMILES IDX 28 16 29 17 30 18 18 21 19 22 20 23 24 24 21 25 23 26 22 27
REMARK SMILES IDX 10 28 11 29 12 30 13 31 31 34 33 35 32 36 34 38 42 39 44 40
REMARK SMILES IDX 43 41 45 43 50 44 51 45 52 46 46 48 47 49 48 50 49 51 35 54
REMARK SMILES IDX 36 55 37 56 38 57 39 58 41 59 40 63 4 65 2 66 1 67 3 68
REMARK H PARENT 6 5 14 10 25 15 30 19 30 20 12 32 12 33 33 37 44 42 52 47
REMARK H PARENT 48 52 48 53 38 60 41 61 41 62 40 64
ROOT
ATOM      1  CA  LEU A   4       0.557  -1.964  -1.585  1.00  0.00     0.171 C 
ENDROOT
BRANCH   1   2
ATOM      2  N   LEU A   4      -0.428  -0.887  -1.751  1.00  0.00    -0.342 N 
ATOM      3  C   ASN A   3      -0.987  -0.180  -0.634  1.00  0.00     0.243 C 
ATOM      4  O   ASN A   3      -0.673  -0.508   0.542  1.00  0.00    -0.273 OA
ATOM      5  H   UNL     1      -0.713  -0.590  -2.711  1.00  0.00     0.164 HD
BRANCH   3   6
ATOM      6  CA  ASN A   3      -1.905   0.994  -0.867  1.00  0.00     0.180 C 
BRANCH   6   7
ATOM      7  N   ASN A   3      -2.852   1.129   0.245  1.00  0.00    -0.342 N 
ATOM      8  C   PHE A   2      -4.250   1.390   0.051  1.00  0.00     0.243 C 
ATOM      9  O   PHE A   2      -4.747   1.360  -1.109  1.00  0.00    -0.273 OA
ATOM     10  H   UNL     1      -2.470   1.190   1.218  1.00  0.00     0.164 HD
BRANCH   8  11
ATOM     11  CA  PHE A   2      -5.134   1.650   1.247  1.00  0.00     0.175 C 
BRANCH  11  12
ATOM     12  N   PHE A   2      -6.399   2.276   0.837  1.00  0.00    -0.343 N 
ATOM     13  C   ALA A   1      -6.858   3.534   1.365  1.00  0.00     0.237 C 
ATOM     14  O   ALA A   1      -6.083   4.237   2.076  1.00  0.00    -0.273 OA
ATOM     15  H   UNL     1      -6.994   1.774   0.143  1.00  0.00     0.164 HD
BRANCH  13  16
ATOM     16  CA  ALA A   1      -8.226   4.079   0.987  1.00  0.00     0.138 C 
ATOM     17  CB  ALA A   1      -8.712   5.137   1.987  1.00  0.00     0.035 C 
BRANCH  16  18
ATOM     18  N   ALA A   1      -9.237   3.021   0.899  1.00  0.00    -0.320 NA
ATOM     19  H   UNL     1      -9.127   2.510  -0.010  1.00  0.00     0.119 HD
ATOM     20  H   UNL     1      -9.112   2.338   1.684  1.00  0.00     0.119 HD
ENDBRANCH  16  18
ENDBRANCH  13  16
ENDBRANCH  11  12
BRANCH  11  21
ATOM     21  CB  PHE A   2      -5.403   0.361   2.050  1.00  0.00     0.070 C 
BRANCH  21  22
ATOM     22  CG  PHE A   2      -6.148  -0.688   1.260  1.00  0.00    -0.045 A 
ATOM     23  CD1 PHE A   2      -7.552  -0.747   1.307  1.00  0.00     0.004 A 
ATOM     24  CD2 PHE A   2      -5.448  -1.595   0.445  1.00  0.00     0.004 A 
ATOM     25  CE1 PHE A   2      -8.244  -1.694   0.546  1.00  0.00     0.000 A 
ATOM     26  CE2 PHE A   2      -6.143  -2.550  -0.303  1.00  0.00     0.000 A 
ATOM     27  CZ  PHE A   2      -7.540  -2.600  -0.253  1.00  0.00     0.000 A 
ENDBRANCH  21  22
ENDBRANCH  11  21
ENDBRANCH   8  11
ENDBRANCH   6   7
BRANCH   6  28
ATOM     28  CB  ASN A   3      -1.105   2.301  -1.013  1.00  0.00     0.134 C 
BRANCH  28  29
ATOM     29  CG  ASN A   3      -0.236   2.297  -2.239  1.00  0.00     0.220 C 
ATOM     30  ND2 ASN A   3      -0.825   2.326  -3.541  1.00  0.00    -0.370 N 
ATOM     31  OD1 ASN A   3       1.017   2.245  -2.119  1.00  0.00    -0.275 OA
ATOM     32  H   UNL     1      -1.863   2.377  -3.656  1.00  0.00     0.159 HD
ATOM     33  H   UNL     1      -0.226   2.280  -4.393  1.00  0.00     0.159 HD
ENDBRANCH  28  29
ENDBRANCH   6  28
ENDBRANCH   3   6
ENDBRANCH   1   2
BRANCH   1  34
ATOM     34  C   LEU A   4       1.819  -1.391  -1.000  1.00  0.00     0.243 C 
ATOM     35  N   ARG A   5       2.453  -2.035   0.115  1.00  0.00    -0.343 N 
ATOM     36  O   LEU A   4       2.324  -0.352  -1.503  1.00  0.00    -0.273 OA
ATOM     37  H   UNL     1       2.122  -2.990   0.387  1.00  0.00     0.164 HD
BRANCH  35  38
ATOM     38  CA  ARG A   5       3.492  -1.371   0.907  1.00  0.00     0.171 C 
BRANCH  38  39
ATOM     39  C   ARG A   5       4.766  -1.330   0.104  1.00  0.00     0.243 C 
ATOM     40  N   ASN A   6       5.345  -0.071  -0.268  1.00  0.00    -0.341 N 
ATOM     41  O   ARG A   5       5.303  -2.411  -0.265  1.00  0.00    -0.273 OA
ATOM     42  H   UNL     1       4.910   0.803   0.106  1.00  0.00     0.164 HD
BRANCH  40  43
ATOM     43  CA  ASN A   6       6.466   0.025  -1.211  1.00  0.00     0.201 C 
BRANCH  43  44
ATOM     44  C   ASN A   6       7.711  -0.567  -0.605  1.00  0.00     0.326 C 
ATOM     45  O   ASN A   6       7.995  -0.357   0.607  1.00  0.00    -0.250 OA
BRANCH  44  46
ATOM     46  OXT ASN A   6       8.569  -1.323  -1.396  1.00  0.00    -0.480 OA
ATOM     47  H   UNL     1       9.418  -1.718  -1.007  1.00  0.00     0.296 HD
ENDBRANCH  44  46
ENDBRANCH  43  44
BRANCH  43  48
ATOM     48  CB  ASN A   6       6.702   1.495  -1.606  1.00  0.00     0.136 C 
BRANCH  48  49
ATOM     49  CG  ASN A   6       7.709   1.618  -2.714  1.00  0.00     0.220 C 
ATOM     50  ND2 ASN A   6       9.097   1.784  -2.416  1.00  0.00    -0.370 N 
ATOM     51  OD1 ASN A   6       7.335   1.541  -3.914  1.00  0.00    -0.275 OA
ATOM     52  H   UNL     1       9.792   1.856  -3.192  1.00  0.00     0.159 HD
ATOM     53  H   UNL     1       9.434   1.824  -1.428  1.00  0.00     0.159 HD
ENDBRANCH  48  49
ENDBRANCH  43  48
ENDBRANCH  40  43
ENDBRANCH  38  39
BRANCH  38  54
ATOM     54  CB  ARG A   5       3.692  -2.107   2.255  1.00  0.00     0.037 C 
BRANCH  54  55
ATOM     55  CG  ARG A   5       4.289  -1.228   3.368  1.00  0.00     0.024 C 
BRANCH  55  56
ATOM     56  CD  ARG A   5       5.769  -0.896   3.150  1.00  0.00     0.116 C 
BRANCH  56  57
ATOM     57  NE  ARG A   5       6.363  -0.370   4.378  1.00  0.00    -0.357 N 
ATOM     58  CZ  ARG A   5       6.099   0.953   4.872  1.00  0.00     0.185 C 
ATOM     59  NH2 ARG A   5       6.702   1.384   6.094  1.00  0.00    -0.370 N 
ATOM     60  H   UNL     1       7.042  -0.973   4.894  1.00  0.00     0.163 HD
ATOM     61  H   UNL     1       7.311   0.735   6.641  1.00  0.00     0.159 HD
ATOM     62  H   UNL     1       6.543   2.349   6.459  1.00  0.00     0.159 HD
BRANCH  58  63
ATOM     63  NH1 ARG A   5       5.329   1.758   4.211  1.00  0.00    -0.270 NA
ATOM     64  H   UNL     1       5.125   2.725   4.545  1.00  0.00     0.191 HD
ENDBRANCH  58  63
ENDBRANCH  56  57
ENDBRANCH  55  56
ENDBRANCH  54  55
ENDBRANCH  38  54
ENDBRANCH  35  38
ENDBRANCH   1  34
BRANCH   1  65
ATOM     65  CB  LEU A   4       0.866  -2.664  -2.931  1.00  0.00     0.038 C 
BRANCH  65  66
ATOM     66  CG  LEU A   4      -0.136  -3.786  -3.295  1.00  0.00    -0.015 C 
ATOM     67  CD1 LEU A   4       0.307  -4.493  -4.585  1.00  0.00     0.007 C 
ATOM     68  CD2 LEU A   4      -1.570  -3.266  -3.453  1.00  0.00     0.007 C 
ENDBRANCH  65  66
ENDBRANCH   1  65
TORSDOF 26
