REMARK SMILES CC(C)C[C@H](NC(=O)[C@H](Cc1ccccc1)NC(=O)[C@@H](N)CO)C(=O)N[C@@H](CCCCN)C(=O)N[C@@H](CCCNC(=N)N)C(=O)N[C@@H](CCCNC(=N)N)C(=O)O
REMARK SMILES IDX 33 1 34 2 35 3 27 5 26 6 24 7 25 8 5 10 6 11 7 12 8 13 9 15
REMARK SMILES IDX 17 16 18 17 19 18 20 20 21 21 22 24 23 25 10 27 11 28 12 29
REMARK SMILES IDX 16 30 13 31 15 32 14 33 4 34 2 35 1 36 3 37 28 38 29 39
REMARK SMILES IDX 30 40 31 41 32 42 36 45 44 46 46 47 45 48 47 50 55 51 56 52
REMARK SMILES IDX 57 53 48 55 49 56 50 57 51 58 52 59 54 60 53 64 37 66 38 67
REMARK SMILES IDX 39 68 40 69 41 70 43 71 42 75
REMARK H PARENT 35 4 26 9 6 14 17 19 21 22 21 23 23 26 32 43 32 44 46 49 57 54
REMARK H PARENT 51 61 54 62 54 63 53 65 40 72 43 73 43 74 42 76
ROOT
ATOM      1  C   LYS A   4      22.714   9.215  -8.523  1.00  0.00     0.243 C 
ATOM      2  O   LYS A   4      22.882  10.037  -9.465  1.00  0.00    -0.273 OA
ATOM      3  N   ARG A   5      23.819   8.718  -7.783  1.00  0.00    -0.343 N 
ATOM      4  H   UNL     1      23.661   8.026  -7.015  1.00  0.00     0.164 HD
ENDROOT
BRANCH   1   5
ATOM      5  CA  LYS A   4      21.348   8.760  -8.152  1.00  0.00     0.171 C 
BRANCH   5   6
ATOM      6  N   LYS A   4      20.566   9.923  -7.786  1.00  0.00    -0.343 N 
ATOM      7  C   LEU A   3      20.051  10.088  -6.477  1.00  0.00     0.243 C 
ATOM      8  O   LEU A   3      20.162   9.162  -5.625  1.00  0.00    -0.273 OA
ATOM      9  H   UNL     1      20.403  10.664  -8.506  1.00  0.00     0.164 HD
BRANCH   7  10
ATOM     10  CA  LEU A   3      19.339  11.356  -6.146  1.00  0.00     0.171 C 
BRANCH  10  11
ATOM     11  N   LEU A   3      18.082  11.022  -5.536  1.00  0.00    -0.343 N 
ATOM     12  C   PHE A   2      16.885  11.746  -5.776  1.00  0.00     0.243 C 
ATOM     13  O   PHE A   2      16.903  12.796  -6.475  1.00  0.00    -0.273 OA
ATOM     14  H   UNL     1      18.154  10.389  -4.716  1.00  0.00     0.164 HD
BRANCH  12  15
ATOM     15  CA  PHE A   2      15.650  11.313  -5.057  1.00  0.00     0.175 C 
BRANCH  15  16
ATOM     16  N   PHE A   2      14.453  11.739  -5.768  1.00  0.00    -0.343 N 
ATOM     17  C   SER A   1      13.915  13.050  -5.636  1.00  0.00     0.239 C 
ATOM     18  O   SER A   1      14.449  13.869  -4.839  1.00  0.00    -0.273 OA
ATOM     19  H   UNL     1      13.863  11.000  -6.209  1.00  0.00     0.164 HD
BRANCH  17  20
ATOM     20  CA  SER A   1      12.655  13.410  -6.383  1.00  0.00     0.167 C 
BRANCH  20  21
ATOM     21  N   SER A   1      12.467  14.862  -6.382  1.00  0.00    -0.318 NA
ATOM     22  H   UNL     1      12.304  15.174  -5.396  1.00  0.00     0.119 HD
ATOM     23  H   UNL     1      11.581  15.087  -6.890  1.00  0.00     0.119 HD
ENDBRANCH  20  21
BRANCH  20  24
ATOM     24  CB  SER A   1      12.695  12.893  -7.842  1.00  0.00     0.184 C 
BRANCH  24  25
ATOM     25  OG  SER A   1      11.440  13.037  -8.449  1.00  0.00    -0.394 OA
ATOM     26  H   UNL     1      10.855  12.333  -8.065  1.00  0.00     0.210 HD
ENDBRANCH  24  25
ENDBRANCH  20  24
ENDBRANCH  17  20
ENDBRANCH  15  16
BRANCH  15  27
ATOM     27  CB  PHE A   2      15.609   9.773  -4.882  1.00  0.00     0.070 C 
BRANCH  27  28
ATOM     28  CG  PHE A   2      14.435   9.292  -4.092  1.00  0.00    -0.045 A 
ATOM     29  CD1 PHE A   2      13.898  10.048  -3.033  1.00  0.00     0.004 A 
ATOM     30  CD2 PHE A   2      13.964   7.991  -4.310  1.00  0.00     0.004 A 
ATOM     31  CE1 PHE A   2      12.866   9.535  -2.258  1.00  0.00     0.000 A 
ATOM     32  CE2 PHE A   2      12.937   7.476  -3.520  1.00  0.00     0.000 A 
ATOM     33  CZ  PHE A   2      12.384   8.251  -2.500  1.00  0.00     0.000 A 
ENDBRANCH  27  28
ENDBRANCH  15  27
ENDBRANCH  12  15
ENDBRANCH  10  11
BRANCH  10  34
ATOM     34  CB  LEU A   3      20.164  12.254  -5.215  1.00  0.00     0.038 C 
BRANCH  34  35
ATOM     35  CG  LEU A   3      20.417  11.680  -3.791  1.00  0.00    -0.015 C 
ATOM     36  CD1 LEU A   3      21.819  12.066  -3.316  1.00  0.00     0.007 C 
ATOM     37  CD2 LEU A   3      19.369  12.170  -2.780  1.00  0.00     0.007 C 
ENDBRANCH  34  35
ENDBRANCH  10  34
ENDBRANCH   7  10
ENDBRANCH   5   6
BRANCH   5  38
ATOM     38  CB  LYS A   4      20.662   8.008  -9.295  1.00  0.00     0.035 C 
BRANCH  38  39
ATOM     39  CG  LYS A   4      21.441   6.769  -9.767  1.00  0.00     0.004 C 
BRANCH  39  40
ATOM     40  CD  LYS A   4      21.774   5.755  -8.656  1.00  0.00     0.015 C 
BRANCH  40  41
ATOM     41  CE  LYS A   4      20.553   5.210  -7.900  1.00  0.00     0.077 C 
BRANCH  41  42
ATOM     42  NZ  LYS A   4      19.659   4.485  -8.799  1.00  0.00    -0.330 NA
ATOM     43  H   UNL     1      19.085   5.182  -9.326  1.00  0.00     0.118 HD
ATOM     44  H   UNL     1      18.986   3.944  -8.209  1.00  0.00     0.118 HD
ENDBRANCH  41  42
ENDBRANCH  40  41
ENDBRANCH  39  40
ENDBRANCH  38  39
ENDBRANCH   5  38
ENDBRANCH   1   5
BRANCH   3  45
ATOM     45  CA  ARG A   5      25.183   9.120  -8.066  1.00  0.00     0.171 C 
BRANCH  45  46
ATOM     46  C   ARG A   5      25.899   7.967  -8.678  1.00  0.00     0.243 C 
ATOM     47  N   ARG A   6      25.975   7.911 -10.093  1.00  0.00    -0.341 N 
ATOM     48  O   ARG A   5      26.425   7.070  -7.967  1.00  0.00    -0.273 OA
ATOM     49  H   UNL     1      25.927   8.830 -10.587  1.00  0.00     0.164 HD
BRANCH  47  50
ATOM     50  CA  ARG A   6      26.538   6.781 -10.811  1.00  0.00     0.192 C 
BRANCH  50  51
ATOM     51  C   ARG A   6      27.989   6.634 -10.441  1.00  0.00     0.326 C 
ATOM     52  O   ARG A   6      28.802   7.568 -10.678  1.00  0.00    -0.250 OA
BRANCH  51  53
ATOM     53  OXT ARG A   6      28.435   5.462  -9.839  1.00  0.00    -0.480 OA
ATOM     54  H   UNL     1      29.409   5.347  -9.584  1.00  0.00     0.296 HD
ENDBRANCH  51  53
ENDBRANCH  50  51
BRANCH  50  55
ATOM     55  CB  ARG A   6      26.405   7.018 -12.327  1.00  0.00     0.039 C 
BRANCH  55  56
ATOM     56  CG  ARG A   6      24.946   7.080 -12.825  1.00  0.00     0.024 C 
BRANCH  56  57
ATOM     57  CD  ARG A   6      24.221   8.418 -12.612  1.00  0.00     0.116 C 
BRANCH  57  58
ATOM     58  NE  ARG A   6      22.967   8.458 -13.368  1.00  0.00    -0.357 N 
ATOM     59  CZ  ARG A   6      22.034   9.550 -13.288  1.00  0.00     0.185 C 
ATOM     60  NH2 ARG A   6      20.766   9.436 -13.934  1.00  0.00    -0.370 N 
ATOM     61  H   UNL     1      22.694   7.631 -13.947  1.00  0.00     0.163 HD
ATOM     62  H   UNL     1      20.074  10.217 -13.887  1.00  0.00     0.159 HD
ATOM     63  H   UNL     1      20.511   8.568 -14.455  1.00  0.00     0.159 HD
BRANCH  59  64
ATOM     64  NH1 ARG A   6      22.318  10.641 -12.647  1.00  0.00    -0.270 NA
ATOM     65  H   UNL     1      23.225  10.801 -12.157  1.00  0.00     0.191 HD
ENDBRANCH  59  64
ENDBRANCH  57  58
ENDBRANCH  56  57
ENDBRANCH  55  56
ENDBRANCH  50  55
ENDBRANCH  47  50
ENDBRANCH  45  46
BRANCH  45  66
ATOM     66  CB  ARG A   5      25.860   9.603  -6.790  1.00  0.00     0.037 C 
BRANCH  66  67
ATOM     67  CG  ARG A   5      25.166  10.861  -6.270  1.00  0.00     0.024 C 
BRANCH  67  68
ATOM     68  CD  ARG A   5      25.839  11.392  -5.013  1.00  0.00     0.116 C 
BRANCH  68  69
ATOM     69  NE  ARG A   5      25.378  10.684  -3.822  1.00  0.00    -0.357 N 
ATOM     70  CZ  ARG A   5      25.468  11.279  -2.526  1.00  0.00     0.185 C 
ATOM     71  NH2 ARG A   5      26.105  12.541  -2.349  1.00  0.00    -0.370 N 
ATOM     72  H   UNL     1      24.899   9.760  -3.921  1.00  0.00     0.163 HD
ATOM     73  H   UNL     1      26.692  12.983  -3.089  1.00  0.00     0.159 HD
ATOM     74  H   UNL     1      26.080  13.008  -1.415  1.00  0.00     0.159 HD
BRANCH  70  75
ATOM     75  NH1 ARG A   5      24.956  10.679  -1.499  1.00  0.00    -0.270 NA
ATOM     76  H   UNL     1      24.474   9.757  -1.584  1.00  0.00     0.191 HD
ENDBRANCH  70  75
ENDBRANCH  68  69
ENDBRANCH  67  68
ENDBRANCH  66  67
ENDBRANCH  45  66
ENDBRANCH   3  45
TORSDOF 34
