REMARK SMILES CC[C@H](C)[C@H](NC(=O)[C@@H](N)CO)C(=O)N[C@@H](CC(C)C)C(=O)N[C@@H](CO)C(=O)N[C@@H](CCCNC(=N)N)C(=O)N[C@@H](CC(N)=O)C(=O)O
REMARK SMILES IDX 21 1 22 2 23 3 16 5 15 6 13 7 14 8 5 10 6 11 7 12 8 13 9 15
REMARK SMILES IDX 10 16 11 19 12 20 3 22 4 23 2 24 1 25 17 26 18 27 19 28
REMARK SMILES IDX 20 29 24 30 27 31 29 32 28 33 30 35 38 36 40 37 39 38 41 40
REMARK SMILES IDX 46 41 47 42 48 43 42 45 43 46 44 47 45 48 31 51 32 52 33 53
REMARK SMILES IDX 34 54 35 55 37 56 36 60 25 62 26 63
REMARK H PARENT 23 4 15 9 6 14 10 17 10 18 12 21 29 34 40 39 48 44 44 49 44 50
REMARK H PARENT 34 57 37 58 37 59 36 61 26 64
ROOT
ATOM      1  C   LEU A   3      20.047  10.080  -6.475  1.00  0.00     0.243 C 
ATOM      2  O   LEU A   3      20.163   9.156  -5.622  1.00  0.00    -0.273 OA
ATOM      3  N   SER A   4      20.563   9.913  -7.784  1.00  0.00    -0.340 N 
ATOM      4  H   UNL     1      20.401  10.657  -8.502  1.00  0.00     0.164 HD
ENDROOT
BRANCH   1   5
ATOM      5  CA  LEU A   3      19.331  11.349  -6.140  1.00  0.00     0.171 C 
BRANCH   5   6
ATOM      6  N   LEU A   3      18.076  11.018  -5.519  1.00  0.00    -0.343 N 
ATOM      7  C   ILE A   2      16.878  11.748  -5.740  1.00  0.00     0.243 C 
ATOM      8  O   ILE A   2      16.893  12.795  -6.445  1.00  0.00    -0.273 OA
ATOM      9  H   UNL     1      18.145  10.363  -4.715  1.00  0.00     0.164 HD
BRANCH   7  10
ATOM     10  CA  ILE A   2      15.622  11.277  -5.053  1.00  0.00     0.174 C 
BRANCH  10  11
ATOM     11  N   ILE A   2      14.440  11.731  -5.771  1.00  0.00    -0.343 N 
ATOM     12  C   SER A   1      13.914  13.047  -5.638  1.00  0.00     0.239 C 
ATOM     13  O   SER A   1      14.448  13.862  -4.837  1.00  0.00    -0.273 OA
ATOM     14  H   UNL     1      13.846  11.013  -6.234  1.00  0.00     0.164 HD
BRANCH  12  15
ATOM     15  CA  SER A   1      12.662  13.413  -6.391  1.00  0.00     0.167 C 
BRANCH  15  16
ATOM     16  N   SER A   1      12.474  14.865  -6.373  1.00  0.00    -0.318 NA
ATOM     17  H   UNL     1      11.544  15.093  -6.794  1.00  0.00     0.119 HD
ATOM     18  H   UNL     1      13.208  15.322  -6.962  1.00  0.00     0.119 HD
ENDBRANCH  15  16
BRANCH  15  19
ATOM     19  CB  SER A   1      12.687  12.888  -7.850  1.00  0.00     0.184 C 
BRANCH  19  20
ATOM     20  OG  SER A   1      11.434  13.050  -8.452  1.00  0.00    -0.394 OA
ATOM     21  H   UNL     1      10.836  12.362  -8.057  1.00  0.00     0.210 HD
ENDBRANCH  19  20
ENDBRANCH  15  19
ENDBRANCH  12  15
ENDBRANCH  10  11
BRANCH  10  22
ATOM     22  CB  ILE A   2      15.585   9.720  -4.901  1.00  0.00     0.018 C 
ATOM     23  CG1 ILE A   2      14.381   9.274  -4.071  1.00  0.00     0.010 C 
BRANCH  22  24
ATOM     24  CG2 ILE A   2      15.641   8.966  -6.260  1.00  0.00     0.002 C 
ATOM     25  CD1 ILE A   2      16.233   7.562  -6.122  1.00  0.00     0.004 C 
ENDBRANCH  22  24
ENDBRANCH  10  22
ENDBRANCH   7  10
ENDBRANCH   5   6
BRANCH   5  26
ATOM     26  CB  LEU A   3      20.162  12.249  -5.216  1.00  0.00     0.038 C 
BRANCH  26  27
ATOM     27  CG  LEU A   3      20.417  11.678  -3.791  1.00  0.00    -0.015 C 
ATOM     28  CD1 LEU A   3      21.819  12.067  -3.318  1.00  0.00     0.007 C 
ATOM     29  CD2 LEU A   3      19.369  12.168  -2.780  1.00  0.00     0.007 C 
ENDBRANCH  26  27
ENDBRANCH   5  26
ENDBRANCH   1   5
BRANCH   3  30
ATOM     30  CA  SER A   4      21.342   8.747  -8.157  1.00  0.00     0.197 C 
BRANCH  30  31
ATOM     31  C   SER A   4      22.710   9.200  -8.531  1.00  0.00     0.245 C 
ATOM     32  N   ARG A   5      23.817   8.707  -7.791  1.00  0.00    -0.342 N 
ATOM     33  O   SER A   4      22.877  10.028  -9.469  1.00  0.00    -0.273 OA
ATOM     34  H   UNL     1      23.662   7.985  -7.051  1.00  0.00     0.164 HD
BRANCH  32  35
ATOM     35  CA  ARG A   5      25.181   9.117  -8.072  1.00  0.00     0.171 C 
BRANCH  35  36
ATOM     36  C   ARG A   5      25.901   7.968  -8.686  1.00  0.00     0.243 C 
ATOM     37  N   ASN A   6      25.916   7.866 -10.103  1.00  0.00    -0.341 N 
ATOM     38  O   ARG A   5      26.449   7.087  -7.970  1.00  0.00    -0.273 OA
ATOM     39  H   UNL     1      25.498   8.652 -10.651  1.00  0.00     0.164 HD
BRANCH  37  40
ATOM     40  CA  ASN A   6      26.542   6.750 -10.803  1.00  0.00     0.201 C 
BRANCH  40  41
ATOM     41  C   ASN A   6      27.996   6.641 -10.415  1.00  0.00     0.326 C 
ATOM     42  O   ASN A   6      28.793   7.580 -10.679  1.00  0.00    -0.250 OA
BRANCH  41  43
ATOM     43  OXT ASN A   6      28.475   5.505  -9.768  1.00  0.00    -0.480 OA
ATOM     44  H   UNL     1      27.865   4.730  -9.539  1.00  0.00     0.296 HD
ENDBRANCH  41  43
ENDBRANCH  40  41
BRANCH  40  45
ATOM     45  CB  ASN A   6      26.424   6.946 -12.323  1.00  0.00     0.136 C 
BRANCH  45  46
ATOM     46  CG  ASN A   6      25.009   7.181 -12.772  1.00  0.00     0.220 C 
ATOM     47  ND2 ASN A   6      24.753   8.089 -13.834  1.00  0.00    -0.370 N 
ATOM     48  OD1 ASN A   6      24.051   6.563 -12.238  1.00  0.00    -0.275 OA
ATOM     49  H   UNL     1      25.534   8.595 -14.309  1.00  0.00     0.159 HD
ATOM     50  H   UNL     1      23.775   8.258 -14.157  1.00  0.00     0.159 HD
ENDBRANCH  45  46
ENDBRANCH  40  45
ENDBRANCH  37  40
ENDBRANCH  35  36
BRANCH  35  51
ATOM     51  CB  ARG A   5      25.856   9.600  -6.793  1.00  0.00     0.037 C 
BRANCH  51  52
ATOM     52  CG  ARG A   5      25.163  10.859  -6.272  1.00  0.00     0.024 C 
BRANCH  52  53
ATOM     53  CD  ARG A   5      25.838  11.391  -5.015  1.00  0.00     0.116 C 
BRANCH  53  54
ATOM     54  NE  ARG A   5      25.377  10.684  -3.823  1.00  0.00    -0.357 N 
ATOM     55  CZ  ARG A   5      25.468  11.279  -2.527  1.00  0.00     0.185 C 
ATOM     56  NH2 ARG A   5      26.105  12.541  -2.350  1.00  0.00    -0.370 N 
ATOM     57  H   UNL     1      24.898   9.759  -3.921  1.00  0.00     0.163 HD
ATOM     58  H   UNL     1      26.081  13.007  -1.416  1.00  0.00     0.159 HD
ATOM     59  H   UNL     1      26.691  12.983  -3.091  1.00  0.00     0.159 HD
BRANCH  55  60
ATOM     60  NH1 ARG A   5      24.957  10.679  -1.500  1.00  0.00    -0.270 NA
ATOM     61  H   UNL     1      24.474   9.757  -1.584  1.00  0.00     0.191 HD
ENDBRANCH  55  60
ENDBRANCH  53  54
ENDBRANCH  52  53
ENDBRANCH  51  52
ENDBRANCH  35  51
ENDBRANCH  32  35
ENDBRANCH  30  31
BRANCH  30  62
ATOM     62  CB  SER A   4      20.659   8.004  -9.300  1.00  0.00     0.191 C 
BRANCH  62  63
ATOM     63  OG  SER A   4      21.388   6.853  -9.628  1.00  0.00    -0.394 OA
ATOM     64  H   UNL     1      20.904   6.426 -10.381  1.00  0.00     0.210 HD
ENDBRANCH  62  63
ENDBRANCH  30  62
ENDBRANCH   3  30
TORSDOF 28
