REMARK SMILES N=C(N)NCCC[C@H](NC(=O)[C@@H]1CCCN1C(=O)[C@H](CCCNC(=N)N)NC(=O)[C@H](Cc1ccccc1)NC(=O)[C@@H](N)CO)C(=O)N[C@@H](CC(N)=O)C(=O)O
REMARK SMILES IDX 16 1 12 2 13 3 14 4 15 5 17 6 18 7 19 8 27 9 28 10 29 11
REMARK SMILES IDX 30 13 38 14 39 15 40 16 41 18 42 19 43 22 44 23 31 25 32 26
REMARK SMILES IDX 33 27 37 28 34 29 36 30 35 31 20 32 21 33 22 34 23 35 24 36
REMARK SMILES IDX 26 37 25 41 10 43 9 44 11 45 8 47 45 48 47 49 46 50 48 52
REMARK SMILES IDX 53 53 54 54 55 55 49 57 50 58 51 59 52 60 7 63 6 64 5 65
REMARK SMILES IDX 4 66 2 67 3 68 1 72
REMARK H PARENT 27 12 38 17 42 20 42 21 44 24 23 38 26 39 26 40 25 42 9 46
REMARK H PARENT 47 51 55 56 51 61 51 62 4 69 3 70 3 71 1 73
ROOT
ATOM      1  N   PRO A   4       0.642  -0.713   1.716  1.00  0.00    -0.329 N 
ATOM      2  CA  PRO A   4       1.588   0.392   1.765  1.00  0.00     0.174 C 
ATOM      3  CB  PRO A   4       2.179   0.349   3.175  1.00  0.00     0.037 C 
ATOM      4  CG  PRO A   4       1.915  -1.065   3.684  1.00  0.00     0.024 C 
ATOM      5  CD  PRO A   4       0.713  -1.562   2.896  1.00  0.00     0.120 C 
ENDROOT
BRANCH   1   6
ATOM      6  C   ARG A   3      -0.338  -0.855   0.672  1.00  0.00     0.245 C 
ATOM      7  O   ARG A   3      -0.177  -0.237  -0.417  1.00  0.00    -0.272 OA
BRANCH   6   8
ATOM      8  CA  ARG A   3      -1.549  -1.746   0.836  1.00  0.00     0.171 C 
BRANCH   8   9
ATOM      9  N   ARG A   3      -2.702  -1.136   0.166  1.00  0.00    -0.343 N 
ATOM     10  C   PHE A   2      -3.420  -0.039   0.749  1.00  0.00     0.243 C 
ATOM     11  O   PHE A   2      -2.993   0.506   1.804  1.00  0.00    -0.273 OA
ATOM     12  H   UNL     1      -2.975  -1.458  -0.792  1.00  0.00     0.164 HD
BRANCH  10  13
ATOM     13  CA  PHE A   2      -4.650   0.498   0.064  1.00  0.00     0.175 C 
BRANCH  13  14
ATOM     14  N   PHE A   2      -5.598   1.017   1.059  1.00  0.00    -0.343 N 
ATOM     15  C   SER A   1      -7.009   0.750   1.013  1.00  0.00     0.239 C 
ATOM     16  O   SER A   1      -7.485  -0.006   0.120  1.00  0.00    -0.273 OA
ATOM     17  H   UNL     1      -5.258   1.723   1.752  1.00  0.00     0.164 HD
BRANCH  15  18
ATOM     18  CA  SER A   1      -7.920   1.431   2.002  1.00  0.00     0.167 C 
BRANCH  18  19
ATOM     19  N   SER A   1      -8.003   2.856   1.677  1.00  0.00    -0.318 NA
ATOM     20  H   UNL     1      -8.554   2.978   0.796  1.00  0.00     0.119 HD
ATOM     21  H   UNL     1      -8.513   3.349   2.446  1.00  0.00     0.119 HD
ENDBRANCH  18  19
BRANCH  18  22
ATOM     22  CB  SER A   1      -9.320   0.783   2.050  1.00  0.00     0.184 C 
BRANCH  22  23
ATOM     23  OG  SER A   1     -10.108   1.366   3.053  1.00  0.00    -0.394 OA
ATOM     24  H   UNL     1      -9.769   1.013   3.917  1.00  0.00     0.210 HD
ENDBRANCH  22  23
ENDBRANCH  18  22
ENDBRANCH  15  18
ENDBRANCH  13  14
BRANCH  13  25
ATOM     25  CB  PHE A   2      -4.256   1.601  -0.932  1.00  0.00     0.070 C 
BRANCH  25  26
ATOM     26  CG  PHE A   2      -5.458   2.109  -1.689  1.00  0.00    -0.045 A 
ATOM     27  CD1 PHE A   2      -6.119   3.278  -1.272  1.00  0.00     0.004 A 
ATOM     28  CD2 PHE A   2      -5.974   1.376  -2.771  1.00  0.00     0.004 A 
ATOM     29  CE1 PHE A   2      -7.272   3.713  -1.935  1.00  0.00     0.000 A 
ATOM     30  CE2 PHE A   2      -7.125   1.815  -3.433  1.00  0.00     0.000 A 
ATOM     31  CZ  PHE A   2      -7.776   2.980  -3.014  1.00  0.00     0.000 A 
ENDBRANCH  25  26
ENDBRANCH  13  25
ENDBRANCH  10  13
ENDBRANCH   8   9
BRANCH   8  32
ATOM     32  CB  ARG A   3      -1.257  -3.146   0.258  1.00  0.00     0.037 C 
BRANCH  32  33
ATOM     33  CG  ARG A   3      -2.428  -4.134   0.419  1.00  0.00     0.024 C 
BRANCH  33  34
ATOM     34  CD  ARG A   3      -2.695  -4.524   1.880  1.00  0.00     0.116 C 
BRANCH  34  35
ATOM     35  NE  ARG A   3      -3.752  -5.533   1.946  1.00  0.00    -0.357 N 
ATOM     36  CZ  ARG A   3      -3.548  -6.914   1.624  1.00  0.00     0.185 C 
ATOM     37  NH2 ARG A   3      -4.669  -7.805   1.593  1.00  0.00    -0.370 N 
ATOM     38  H   UNL     1      -4.703  -5.232   2.255  1.00  0.00     0.163 HD
ATOM     39  H   UNL     1      -5.629  -7.446   1.790  1.00  0.00     0.159 HD
ATOM     40  H   UNL     1      -4.548  -8.814   1.363  1.00  0.00     0.159 HD
BRANCH  36  41
ATOM     41  NH1 ARG A   3      -2.355  -7.359   1.366  1.00  0.00    -0.270 NA
ATOM     42  H   UNL     1      -2.186  -8.360   1.125  1.00  0.00     0.191 HD
ENDBRANCH  36  41
ENDBRANCH  34  35
ENDBRANCH  33  34
ENDBRANCH  32  33
ENDBRANCH   8  32
ENDBRANCH   6   8
ENDBRANCH   1   6
BRANCH   2  43
ATOM     43  C   PRO A   4       2.661   0.230   0.719  1.00  0.00     0.243 C 
ATOM     44  N   ARG A   5       2.903   1.285  -0.222  1.00  0.00    -0.343 N 
ATOM     45  O   PRO A   4       3.375  -0.810   0.699  1.00  0.00    -0.273 OA
ATOM     46  H   UNL     1       2.215   2.068  -0.273  1.00  0.00     0.164 HD
BRANCH  44  47
ATOM     47  CA  ARG A   5       4.205   1.461  -0.873  1.00  0.00     0.171 C 
BRANCH  47  48
ATOM     48  C   ARG A   5       5.171   2.063   0.119  1.00  0.00     0.243 C 
ATOM     49  N   ASN A   6       6.537   1.629   0.162  1.00  0.00    -0.341 N 
ATOM     50  O   ARG A   5       4.781   2.989   0.882  1.00  0.00    -0.273 OA
ATOM     51  H   UNL     1       6.790   0.759  -0.356  1.00  0.00     0.164 HD
BRANCH  49  52
ATOM     52  CA  ASN A   6       7.557   2.291   0.986  1.00  0.00     0.201 C 
BRANCH  52  53
ATOM     53  C   ASN A   6       7.673   3.755   0.642  1.00  0.00     0.326 C 
ATOM     54  O   ASN A   6       7.528   4.147  -0.547  1.00  0.00    -0.250 OA
BRANCH  53  55
ATOM     55  OXT ASN A   6       7.981   4.674   1.640  1.00  0.00    -0.480 OA
ATOM     56  H   UNL     1       8.076   5.662   1.428  1.00  0.00     0.296 HD
ENDBRANCH  53  55
ENDBRANCH  52  53
BRANCH  52  57
ATOM     57  CB  ASN A   6       8.925   1.585   0.870  1.00  0.00     0.136 C 
BRANCH  57  58
ATOM     58  CG  ASN A   6       9.464   1.583  -0.538  1.00  0.00     0.220 C 
ATOM     59  ND2 ASN A   6       9.306   0.438  -1.379  1.00  0.00    -0.370 N 
ATOM     60  OD1 ASN A   6      10.048   2.607  -0.986  1.00  0.00    -0.275 OA
ATOM     61  H   UNL     1       9.619   0.475  -2.377  1.00  0.00     0.159 HD
ATOM     62  H   UNL     1       8.894  -0.451  -1.010  1.00  0.00     0.159 HD
ENDBRANCH  57  58
ENDBRANCH  52  57
ENDBRANCH  49  52
ENDBRANCH  47  48
BRANCH  47  63
ATOM     63  CB  ARG A   5       4.050   2.381  -2.105  1.00  0.00     0.037 C 
BRANCH  63  64
ATOM     64  CG  ARG A   5       5.287   2.425  -3.029  1.00  0.00     0.024 C 
BRANCH  64  65
ATOM     65  CD  ARG A   5       5.358   1.251  -4.025  1.00  0.00     0.116 C 
BRANCH  65  66
ATOM     66  NE  ARG A   5       6.045   0.083  -3.464  1.00  0.00    -0.357 N 
ATOM     67  CZ  ARG A   5       6.132  -1.186  -4.142  1.00  0.00     0.185 C 
ATOM     68  NH2 ARG A   5       6.700  -2.305  -3.463  1.00  0.00    -0.370 N 
ATOM     69  H   UNL     1       6.500   0.155  -2.529  1.00  0.00     0.163 HD
ATOM     70  H   UNL     1       6.739  -3.243  -3.926  1.00  0.00     0.159 HD
ATOM     71  H   UNL     1       7.070  -2.206  -2.491  1.00  0.00     0.159 HD
BRANCH  67  72
ATOM     72  NH1 ARG A   5       5.711  -1.338  -5.361  1.00  0.00    -0.270 NA
ATOM     73  H   UNL     1       5.285  -0.568  -5.920  1.00  0.00     0.191 HD
ENDBRANCH  67  72
ENDBRANCH  65  66
ENDBRANCH  64  65
ENDBRANCH  63  64
ENDBRANCH  47  63
ENDBRANCH  44  47
ENDBRANCH   2  43
TORSDOF 29
