REMARK SMILES CC[C@H](C)[C@H](NC(=O)[C@@H](N)CO)C(=O)N[C@@H](Cc1c[nH]cn1)C(=O)N[C@@H](CC(C)C)C(=O)N[C@@H](CCCNC(=N)N)C(=O)N[C@@H](CC(N)=O)C(=O)O
REMARK SMILES IDX 23 1 24 2 25 3 16 5 15 6 13 7 14 8 5 10 6 11 7 12 8 13 9 15
REMARK SMILES IDX 10 16 11 19 12 20 3 22 4 23 2 24 1 25 17 26 18 27 22 28
REMARK SMILES IDX 19 29 21 30 20 31 26 33 31 34 33 35 32 36 34 38 42 39 44 40
REMARK SMILES IDX 43 41 45 43 50 44 51 45 52 46 46 48 47 49 48 50 49 51 35 54
REMARK SMILES IDX 36 55 37 56 38 57 39 58 41 59 40 63 27 65 28 66 29 67 30 68
REMARK H PARENT 25 4 15 9 6 14 10 17 10 18 12 21 20 32 33 37 44 42 52 47 48 52
REMARK H PARENT 48 53 38 60 41 61 41 62 40 64
ROOT
ATOM      1  C   HIS A   3      20.045  10.095  -6.457  1.00  0.00     0.243 C 
ATOM      2  O   HIS A   3      20.168   9.182  -5.593  1.00  0.00    -0.273 OA
ATOM      3  N   LEU A   4      20.561   9.923  -7.768  1.00  0.00    -0.342 N 
ATOM      4  H   UNL     1      20.393  10.662  -8.490  1.00  0.00     0.164 HD
ENDROOT
BRANCH   1   5
ATOM      5  CA  HIS A   3      19.336  11.365  -6.125  1.00  0.00     0.177 C 
BRANCH   5   6
ATOM      6  N   HIS A   3      18.082  11.041  -5.492  1.00  0.00    -0.342 N 
ATOM      7  C   ILE A   2      16.878  11.752  -5.738  1.00  0.00     0.243 C 
ATOM      8  O   ILE A   2      16.890  12.793  -6.452  1.00  0.00    -0.273 OA
ATOM      9  H   UNL     1      18.157  10.455  -4.635  1.00  0.00     0.164 HD
BRANCH   7  10
ATOM     10  CA  ILE A   2      15.624  11.276  -5.055  1.00  0.00     0.174 C 
BRANCH  10  11
ATOM     11  N   ILE A   2      14.440  11.731  -5.770  1.00  0.00    -0.343 N 
ATOM     12  C   SER A   1      13.917  13.046  -5.635  1.00  0.00     0.239 C 
ATOM     13  O   SER A   1      14.454  13.859  -4.833  1.00  0.00    -0.273 OA
ATOM     14  H   UNL     1      13.842  11.014  -6.228  1.00  0.00     0.164 HD
BRANCH  12  15
ATOM     15  CA  SER A   1      12.662  13.414  -6.388  1.00  0.00     0.167 C 
BRANCH  15  16
ATOM     16  N   SER A   1      12.457  14.863  -6.395  1.00  0.00    -0.318 NA
ATOM     17  H   UNL     1      13.319  15.340  -6.749  1.00  0.00     0.119 HD
ATOM     18  H   UNL     1      12.288  15.190  -5.415  1.00  0.00     0.119 HD
ENDBRANCH  15  16
BRANCH  15  19
ATOM     19  CB  SER A   1      12.690  12.896  -7.845  1.00  0.00     0.184 C 
BRANCH  19  20
ATOM     20  OG  SER A   1      11.435  13.055  -8.445  1.00  0.00    -0.394 OA
ATOM     21  H   UNL     1      10.844  12.354  -8.063  1.00  0.00     0.210 HD
ENDBRANCH  19  20
ENDBRANCH  15  19
ENDBRANCH  12  15
ENDBRANCH  10  11
BRANCH  10  22
ATOM     22  CB  ILE A   2      15.593   9.720  -4.910  1.00  0.00     0.018 C 
ATOM     23  CG1 ILE A   2      14.396   9.268  -4.072  1.00  0.00     0.010 C 
BRANCH  22  24
ATOM     24  CG2 ILE A   2      15.638   8.974  -6.275  1.00  0.00     0.002 C 
ATOM     25  CD1 ILE A   2      16.234   7.571  -6.151  1.00  0.00     0.004 C 
ENDBRANCH  22  24
ENDBRANCH  10  22
ENDBRANCH   7  10
ENDBRANCH   5   6
BRANCH   5  26
ATOM     26  CB  HIS A   3      20.171  12.264  -5.201  1.00  0.00     0.093 C 
BRANCH  26  27
ATOM     27  CG  HIS A   3      20.429  11.671  -3.840  1.00  0.00     0.061 A 
ATOM     28  ND1 HIS A   3      21.501  10.910  -3.542  1.00  0.00    -0.242 NA
ATOM     29  CD2 HIS A   3      19.628  11.809  -2.727  1.00  0.00     0.107 A 
ATOM     30  CE1 HIS A   3      21.325  10.598  -2.241  1.00  0.00     0.196 A 
ATOM     31  NE2 HIS A   3      20.200  11.128  -1.724  1.00  0.00    -0.351 N 
ATOM     32  H   UNL     1      19.847  11.029  -0.746  1.00  0.00     0.167 HD
ENDBRANCH  26  27
ENDBRANCH   5  26
ENDBRANCH   1   5
BRANCH   3  33
ATOM     33  CA  LEU A   4      21.346   8.762  -8.137  1.00  0.00     0.171 C 
BRANCH  33  34
ATOM     34  C   LEU A   4      22.711   9.217  -8.519  1.00  0.00     0.243 C 
ATOM     35  N   ARG A   5      23.821   8.720  -7.785  1.00  0.00    -0.343 N 
ATOM     36  O   LEU A   4      22.875  10.033  -9.467  1.00  0.00    -0.273 OA
ATOM     37  H   UNL     1      23.666   8.030  -7.015  1.00  0.00     0.164 HD
BRANCH  35  38
ATOM     38  CA  ARG A   5      25.185   9.122  -8.073  1.00  0.00     0.171 C 
BRANCH  38  39
ATOM     39  C   ARG A   5      25.899   7.968  -8.685  1.00  0.00     0.243 C 
ATOM     40  N   ASN A   6      25.913   7.864 -10.102  1.00  0.00    -0.341 N 
ATOM     41  O   ARG A   5      26.447   7.087  -7.969  1.00  0.00    -0.273 OA
ATOM     42  H   UNL     1      25.489   8.647 -10.651  1.00  0.00     0.164 HD
BRANCH  40  43
ATOM     43  CA  ASN A   6      26.542   6.751 -10.804  1.00  0.00     0.201 C 
BRANCH  43  44
ATOM     44  C   ASN A   6      27.992   6.642 -10.415  1.00  0.00     0.326 C 
ATOM     45  O   ASN A   6      28.794   7.579 -10.677  1.00  0.00    -0.250 OA
BRANCH  44  46
ATOM     46  OXT ASN A   6      28.451   5.499  -9.768  1.00  0.00    -0.480 OA
ATOM     47  H   UNL     1      29.424   5.409  -9.499  1.00  0.00     0.296 HD
ENDBRANCH  44  46
ENDBRANCH  43  44
BRANCH  43  48
ATOM     48  CB  ASN A   6      26.424   6.947 -12.323  1.00  0.00     0.136 C 
BRANCH  48  49
ATOM     49  CG  ASN A   6      25.010   7.181 -12.773  1.00  0.00     0.220 C 
ATOM     50  ND2 ASN A   6      24.753   8.090 -13.833  1.00  0.00    -0.370 N 
ATOM     51  OD1 ASN A   6      24.053   6.558 -12.243  1.00  0.00    -0.275 OA
ATOM     52  H   UNL     1      25.533   8.600 -14.306  1.00  0.00     0.159 HD
ATOM     53  H   UNL     1      23.774   8.258 -14.156  1.00  0.00     0.159 HD
ENDBRANCH  48  49
ENDBRANCH  43  48
ENDBRANCH  40  43
ENDBRANCH  38  39
BRANCH  38  54
ATOM     54  CB  ARG A   5      25.862   9.605  -6.795  1.00  0.00     0.037 C 
BRANCH  54  55
ATOM     55  CG  ARG A   5      25.165  10.859  -6.270  1.00  0.00     0.024 C 
BRANCH  55  56
ATOM     56  CD  ARG A   5      25.840  11.390  -5.013  1.00  0.00     0.116 C 
BRANCH  56  57
ATOM     57  NE  ARG A   5      25.375  10.687  -3.820  1.00  0.00    -0.357 N 
ATOM     58  CZ  ARG A   5      25.468  11.282  -2.526  1.00  0.00     0.185 C 
ATOM     59  NH2 ARG A   5      26.108  12.546  -2.351  1.00  0.00    -0.370 N 
ATOM     60  H   UNL     1      24.891   9.765  -3.912  1.00  0.00     0.163 HD
ATOM     61  H   UNL     1      26.698  12.981  -3.092  1.00  0.00     0.159 HD
ATOM     62  H   UNL     1      26.083  13.022  -1.422  1.00  0.00     0.159 HD
BRANCH  58  63
ATOM     63  NH1 ARG A   5      24.955  10.671  -1.506  1.00  0.00    -0.270 NA
ATOM     64  H   UNL     1      24.997  11.075  -0.544  1.00  0.00     0.191 HD
ENDBRANCH  58  63
ENDBRANCH  56  57
ENDBRANCH  55  56
ENDBRANCH  54  55
ENDBRANCH  38  54
ENDBRANCH  35  38
ENDBRANCH  33  34
BRANCH  33  65
ATOM     65  CB  LEU A   4      20.653   8.000  -9.269  1.00  0.00     0.038 C 
BRANCH  65  66
ATOM     66  CG  LEU A   4      21.447   6.772  -9.767  1.00  0.00    -0.015 C 
ATOM     67  CD1 LEU A   4      21.762   5.779  -8.638  1.00  0.00     0.007 C 
ATOM     68  CD2 LEU A   4      20.661   6.069 -10.876  1.00  0.00     0.007 C 
ENDBRANCH  65  66
ENDBRANCH  33  65
ENDBRANCH   3  33
TORSDOF 28
