REMARK SMILES CC[C@H](C)[C@H](NC(=O)CNC(=O)[C@H](Cc1ccccc1)NC(=O)[C@@H](N)CO)C(=O)N[C@@H](CCCNC(=N)N)C(=O)N[C@@H](CC(N)=O)C(=O)O
REMARK SMILES IDX 7 1 8 2 6 3 9 5 10 6 11 7 12 8 13 10 21 11 22 12 23 13 24 15
REMARK SMILES IDX 25 16 26 19 27 20 14 22 15 23 16 24 20 25 17 26 19 27 18 28
REMARK SMILES IDX 5 29 28 30 30 31 29 32 31 34 39 35 41 36 40 37 42 39 47 40
REMARK SMILES IDX 48 41 49 42 43 44 44 45 45 46 46 47 32 50 33 51 34 52 35 53
REMARK SMILES IDX 36 54 38 55 37 59 3 61 4 62 2 63 1 64
REMARK H PARENT 6 4 10 9 21 14 25 17 25 18 27 21 30 33 41 38 49 43 45 48 45 49
REMARK H PARENT 35 56 38 57 38 58 37 60
ROOT
ATOM      1  C   GLY A   3      20.041  10.101  -6.466  1.00  0.00     0.240 C 
ATOM      2  O   GLY A   3      20.168   9.197  -5.593  1.00  0.00    -0.273 OA
ATOM      3  N   ILE A   4      20.570   9.936  -7.772  1.00  0.00    -0.343 N 
ATOM      4  H   UNL     1      20.482  10.725  -8.452  1.00  0.00     0.164 HD
ENDROOT
BRANCH   1   5
ATOM      5  CA  GLY A   3      19.353  11.377  -6.146  1.00  0.00     0.216 C 
BRANCH   5   6
ATOM      6  N   GLY A   3      18.112  11.083  -5.475  1.00  0.00    -0.345 N 
ATOM      7  C   PHE A   2      16.897  11.757  -5.770  1.00  0.00     0.243 C 
ATOM      8  O   PHE A   2      16.903  12.791  -6.493  1.00  0.00    -0.273 OA
ATOM      9  H   UNL     1      18.212  10.609  -4.550  1.00  0.00     0.164 HD
BRANCH   7  10
ATOM     10  CA  PHE A   2      15.659  11.317  -5.060  1.00  0.00     0.175 C 
BRANCH  10  11
ATOM     11  N   PHE A   2      14.460  11.741  -5.771  1.00  0.00    -0.343 N 
ATOM     12  C   SER A   1      13.916  13.049  -5.637  1.00  0.00     0.239 C 
ATOM     13  O   SER A   1      14.442  13.869  -4.835  1.00  0.00    -0.273 OA
ATOM     14  H   UNL     1      13.880  11.000  -6.221  1.00  0.00     0.164 HD
BRANCH  12  15
ATOM     15  CA  SER A   1      12.661  13.410  -6.390  1.00  0.00     0.167 C 
BRANCH  15  16
ATOM     16  N   SER A   1      12.475  14.862  -6.375  1.00  0.00    -0.318 NA
ATOM     17  H   UNL     1      13.174  15.313  -7.010  1.00  0.00     0.119 HD
ATOM     18  H   UNL     1      11.521  15.088  -6.738  1.00  0.00     0.119 HD
ENDBRANCH  15  16
BRANCH  15  19
ATOM     19  CB  SER A   1      12.688  12.877  -7.844  1.00  0.00     0.184 C 
BRANCH  19  20
ATOM     20  OG  SER A   1      11.436  13.047  -8.450  1.00  0.00    -0.394 OA
ATOM     21  H   UNL     1      11.448  13.936  -8.892  1.00  0.00     0.210 HD
ENDBRANCH  19  20
ENDBRANCH  15  19
ENDBRANCH  12  15
ENDBRANCH  10  11
BRANCH  10  22
ATOM     22  CB  PHE A   2      15.627   9.779  -4.890  1.00  0.00     0.070 C 
BRANCH  22  23
ATOM     23  CG  PHE A   2      14.456   9.290  -4.088  1.00  0.00    -0.045 A 
ATOM     24  CD1 PHE A   2      13.910  10.047  -3.033  1.00  0.00     0.004 A 
ATOM     25  CD2 PHE A   2      13.976   7.991  -4.311  1.00  0.00     0.004 A 
ATOM     26  CE1 PHE A   2      12.872   9.537  -2.263  1.00  0.00     0.000 A 
ATOM     27  CE2 PHE A   2      12.944   7.479  -3.524  1.00  0.00     0.000 A 
ATOM     28  CZ  PHE A   2      12.389   8.254  -2.506  1.00  0.00     0.000 A 
ENDBRANCH  22  23
ENDBRANCH  10  22
ENDBRANCH   7  10
ENDBRANCH   5   6
ENDBRANCH   1   5
BRANCH   3  29
ATOM     29  CA  ILE A   4      21.340   8.770  -8.160  1.00  0.00     0.174 C 
BRANCH  29  30
ATOM     30  C   ILE A   4      22.715   9.217  -8.530  1.00  0.00     0.243 C 
ATOM     31  N   ARG A   5      23.819   8.718  -7.788  1.00  0.00    -0.343 N 
ATOM     32  O   ILE A   4      22.890  10.045  -9.464  1.00  0.00    -0.273 OA
ATOM     33  H   UNL     1      23.659   8.028  -7.019  1.00  0.00     0.164 HD
BRANCH  31  34
ATOM     34  CA  ARG A   5      25.184   9.119  -8.072  1.00  0.00     0.171 C 
BRANCH  34  35
ATOM     35  C   ARG A   5      25.899   7.966  -8.685  1.00  0.00     0.243 C 
ATOM     36  N   ASN A   6      25.913   7.864 -10.102  1.00  0.00    -0.341 N 
ATOM     37  O   ARG A   5      26.448   7.085  -7.969  1.00  0.00    -0.273 OA
ATOM     38  H   UNL     1      25.488   8.647 -10.650  1.00  0.00     0.164 HD
BRANCH  36  39
ATOM     39  CA  ASN A   6      26.542   6.750 -10.804  1.00  0.00     0.201 C 
BRANCH  39  40
ATOM     40  C   ASN A   6      27.993   6.642 -10.416  1.00  0.00     0.326 C 
ATOM     41  O   ASN A   6      28.794   7.579 -10.677  1.00  0.00    -0.250 OA
BRANCH  40  42
ATOM     42  OXT ASN A   6      28.451   5.499  -9.768  1.00  0.00    -0.480 OA
ATOM     43  H   UNL     1      29.424   5.409  -9.500  1.00  0.00     0.296 HD
ENDBRANCH  40  42
ENDBRANCH  39  40
BRANCH  39  44
ATOM     44  CB  ASN A   6      26.424   6.947 -12.323  1.00  0.00     0.136 C 
BRANCH  44  45
ATOM     45  CG  ASN A   6      25.010   7.181 -12.773  1.00  0.00     0.220 C 
ATOM     46  ND2 ASN A   6      24.753   8.091 -13.833  1.00  0.00    -0.370 N 
ATOM     47  OD1 ASN A   6      24.053   6.558 -12.243  1.00  0.00    -0.275 OA
ATOM     48  H   UNL     1      23.775   8.259 -14.156  1.00  0.00     0.159 HD
ATOM     49  H   UNL     1      25.533   8.600 -14.306  1.00  0.00     0.159 HD
ENDBRANCH  44  45
ENDBRANCH  39  44
ENDBRANCH  36  39
ENDBRANCH  34  35
BRANCH  34  50
ATOM     50  CB  ARG A   5      25.861   9.602  -6.794  1.00  0.00     0.037 C 
BRANCH  50  51
ATOM     51  CG  ARG A   5      25.168  10.860  -6.272  1.00  0.00     0.024 C 
BRANCH  51  52
ATOM     52  CD  ARG A   5      25.842  11.390  -5.015  1.00  0.00     0.116 C 
BRANCH  52  53
ATOM     53  NE  ARG A   5      25.378  10.684  -3.823  1.00  0.00    -0.357 N 
ATOM     54  CZ  ARG A   5      25.469  11.279  -2.527  1.00  0.00     0.185 C 
ATOM     55  NH2 ARG A   5      26.106  12.541  -2.350  1.00  0.00    -0.370 N 
ATOM     56  H   UNL     1      24.904   9.757  -3.921  1.00  0.00     0.163 HD
ATOM     57  H   UNL     1      26.084  13.006  -1.415  1.00  0.00     0.159 HD
ATOM     58  H   UNL     1      26.693  12.983  -3.090  1.00  0.00     0.159 HD
BRANCH  54  59
ATOM     59  NH1 ARG A   5      24.959  10.678  -1.499  1.00  0.00    -0.270 NA
ATOM     60  H   UNL     1      24.478   9.755  -1.583  1.00  0.00     0.191 HD
ENDBRANCH  54  59
ENDBRANCH  52  53
ENDBRANCH  51  52
ENDBRANCH  50  51
ENDBRANCH  34  50
ENDBRANCH  31  34
ENDBRANCH  29  30
BRANCH  29  61
ATOM     61  CB  ILE A   4      20.627   7.973  -9.280  1.00  0.00     0.018 C 
ATOM     62  CG1 ILE A   4      20.213   8.826 -10.495  1.00  0.00     0.010 C 
BRANCH  61  63
ATOM     63  CG2 ILE A   4      21.455   6.763  -9.761  1.00  0.00     0.002 C 
ATOM     64  CD1 ILE A   4      21.772   5.773  -8.640  1.00  0.00     0.004 C 
ENDBRANCH  61  63
ENDBRANCH  29  61
ENDBRANCH   3  29
TORSDOF 26
