REMARK SMILES CC(C)C[C@H](NC(=O)[C@H](CCCNC(=N)N)NC(=O)[C@H](Cc1ccccc1)NC(=O)[C@@H](N)CO)C(=O)N[C@@H](CCC(N)=O)C(=O)N[C@@H](CC(N)=O)C(=O)O
REMARK SMILES IDX 7 1 8 2 6 3 9 5 17 6 18 7 19 8 20 10 28 11 29 12 30 13 31 15
REMARK SMILES IDX 32 16 33 19 34 20 21 22 22 23 23 24 27 25 24 26 26 27 25 28
REMARK SMILES IDX 10 29 11 30 12 31 13 32 14 33 16 34 15 38 5 40 35 41 37 42
REMARK SMILES IDX 36 43 38 45 44 46 46 47 45 48 47 50 52 51 53 52 54 53 48 55
REMARK SMILES IDX 49 56 50 57 51 58 39 61 40 62 41 63 42 64 43 65 4 68 2 69
REMARK SMILES IDX 1 70 3 71
REMARK H PARENT 6 4 17 9 28 14 32 17 32 18 34 21 13 35 16 36 16 37 15 39 37 44
REMARK H PARENT 46 49 54 54 50 59 50 60 42 66 42 67
ROOT
ATOM      1  C   ARG A   3      20.036  10.082  -6.472  1.00  0.00     0.243 C 
ATOM      2  O   ARG A   3      20.148   9.160  -5.617  1.00  0.00    -0.273 OA
ATOM      3  N   LEU A   4      20.565   9.921  -7.777  1.00  0.00    -0.343 N 
ATOM      4  H   UNL     1      20.406  10.664  -8.496  1.00  0.00     0.164 HD
ENDROOT
BRANCH   1   5
ATOM      5  CA  ARG A   3      19.335  11.357  -6.140  1.00  0.00     0.171 C 
BRANCH   5   6
ATOM      6  N   ARG A   3      18.086  11.050  -5.495  1.00  0.00    -0.343 N 
ATOM      7  C   PHE A   2      16.885  11.750  -5.771  1.00  0.00     0.243 C 
ATOM      8  O   PHE A   2      16.901  12.792  -6.483  1.00  0.00    -0.273 OA
ATOM      9  H   UNL     1      18.163  10.516  -4.604  1.00  0.00     0.164 HD
BRANCH   7  10
ATOM     10  CA  PHE A   2      15.649  11.314  -5.059  1.00  0.00     0.175 C 
BRANCH  10  11
ATOM     11  N   PHE A   2      14.453  11.741  -5.770  1.00  0.00    -0.343 N 
ATOM     12  C   SER A   1      13.913  13.050  -5.637  1.00  0.00     0.239 C 
ATOM     13  O   SER A   1      14.442  13.870  -4.836  1.00  0.00    -0.273 OA
ATOM     14  H   UNL     1      13.870  11.001  -6.216  1.00  0.00     0.164 HD
BRANCH  12  15
ATOM     15  CA  SER A   1      12.660  13.412  -6.390  1.00  0.00     0.167 C 
BRANCH  15  16
ATOM     16  N   SER A   1      12.474  14.864  -6.376  1.00  0.00    -0.318 NA
ATOM     17  H   UNL     1      11.521  15.091  -6.740  1.00  0.00     0.119 HD
ATOM     18  H   UNL     1      13.174  15.315  -7.009  1.00  0.00     0.119 HD
ENDBRANCH  15  16
BRANCH  15  19
ATOM     19  CB  SER A   1      12.687  12.879  -7.844  1.00  0.00     0.184 C 
BRANCH  19  20
ATOM     20  OG  SER A   1      11.436  13.047  -8.450  1.00  0.00    -0.394 OA
ATOM     21  H   UNL     1      11.445  13.936  -8.892  1.00  0.00     0.210 HD
ENDBRANCH  19  20
ENDBRANCH  15  19
ENDBRANCH  12  15
ENDBRANCH  10  11
BRANCH  10  22
ATOM     22  CB  PHE A   2      15.612   9.774  -4.891  1.00  0.00     0.070 C 
BRANCH  22  23
ATOM     23  CG  PHE A   2      14.444   9.289  -4.090  1.00  0.00    -0.045 A 
ATOM     24  CD1 PHE A   2      13.903  10.046  -3.032  1.00  0.00     0.004 A 
ATOM     25  CD2 PHE A   2      13.968   7.990  -4.310  1.00  0.00     0.004 A 
ATOM     26  CE1 PHE A   2      12.869   9.535  -2.260  1.00  0.00     0.000 A 
ATOM     27  CE2 PHE A   2      12.940   7.477  -3.521  1.00  0.00     0.000 A 
ATOM     28  CZ  PHE A   2      12.386   8.252  -2.502  1.00  0.00     0.000 A 
ENDBRANCH  22  23
ENDBRANCH  10  22
ENDBRANCH   7  10
ENDBRANCH   5   6
BRANCH   5  29
ATOM     29  CB  ARG A   3      20.189  12.252  -5.238  1.00  0.00     0.037 C 
BRANCH  29  30
ATOM     30  CG  ARG A   3      20.430  11.700  -3.813  1.00  0.00     0.024 C 
BRANCH  30  31
ATOM     31  CD  ARG A   3      21.815  12.084  -3.294  1.00  0.00     0.116 C 
BRANCH  31  32
ATOM     32  NE  ARG A   3      21.900  13.526  -3.050  1.00  0.00    -0.357 N 
ATOM     33  CZ  ARG A   3      22.327  14.506  -4.015  1.00  0.00     0.185 C 
ATOM     34  NH2 ARG A   3      21.861  15.850  -3.896  1.00  0.00    -0.370 N 
ATOM     35  H   UNL     1      21.405  13.881  -2.201  1.00  0.00     0.163 HD
ATOM     36  H   UNL     1      22.171  16.582  -4.573  1.00  0.00     0.159 HD
ATOM     37  H   UNL     1      21.197  16.117  -3.135  1.00  0.00     0.159 HD
BRANCH  33  38
ATOM     38  NH1 ARG A   3      23.158  14.214  -4.967  1.00  0.00    -0.270 NA
ATOM     39  H   UNL     1      23.575  13.271  -5.110  1.00  0.00     0.191 HD
ENDBRANCH  33  38
ENDBRANCH  31  32
ENDBRANCH  30  31
ENDBRANCH  29  30
ENDBRANCH   5  29
ENDBRANCH   1   5
BRANCH   3  40
ATOM     40  CA  LEU A   4      21.350   8.760  -8.142  1.00  0.00     0.171 C 
BRANCH  40  41
ATOM     41  C   LEU A   4      22.715   9.217  -8.522  1.00  0.00     0.243 C 
ATOM     42  N   GLN A   5      23.824   8.730  -7.781  1.00  0.00    -0.343 N 
ATOM     43  O   LEU A   4      22.878  10.032  -9.471  1.00  0.00    -0.273 OA
ATOM     44  H   UNL     1      23.670   8.042  -7.009  1.00  0.00     0.164 HD
BRANCH  42  45
ATOM     45  CA  GLN A   5      25.186   9.133  -8.071  1.00  0.00     0.171 C 
BRANCH  45  46
ATOM     46  C   GLN A   5      25.900   7.975  -8.684  1.00  0.00     0.243 C 
ATOM     47  N   ASN A   6      25.912   7.868 -10.101  1.00  0.00    -0.341 N 
ATOM     48  O   GLN A   5      26.445   7.093  -7.967  1.00  0.00    -0.273 OA
ATOM     49  H   UNL     1      25.488   8.651 -10.650  1.00  0.00     0.164 HD
BRANCH  47  50
ATOM     50  CA  ASN A   6      26.541   6.753 -10.802  1.00  0.00     0.201 C 
BRANCH  50  51
ATOM     51  C   ASN A   6      27.991   6.643 -10.414  1.00  0.00     0.326 C 
ATOM     52  O   ASN A   6      28.794   7.579 -10.677  1.00  0.00    -0.250 OA
BRANCH  51  53
ATOM     53  OXT ASN A   6      28.449   5.501  -9.765  1.00  0.00    -0.480 OA
ATOM     54  H   UNL     1      29.421   5.410  -9.496  1.00  0.00     0.296 HD
ENDBRANCH  51  53
ENDBRANCH  50  51
BRANCH  50  55
ATOM     55  CB  ASN A   6      26.424   6.947 -12.322  1.00  0.00     0.136 C 
BRANCH  55  56
ATOM     56  CG  ASN A   6      25.010   7.181 -12.773  1.00  0.00     0.220 C 
ATOM     57  ND2 ASN A   6      24.753   8.090 -13.833  1.00  0.00    -0.370 N 
ATOM     58  OD1 ASN A   6      24.053   6.558 -12.243  1.00  0.00    -0.275 OA
ATOM     59  H   UNL     1      23.775   8.257 -14.157  1.00  0.00     0.159 HD
ATOM     60  H   UNL     1      25.533   8.600 -14.305  1.00  0.00     0.159 HD
ENDBRANCH  55  56
ENDBRANCH  50  55
ENDBRANCH  47  50
ENDBRANCH  45  46
BRANCH  45  61
ATOM     61  CB  GLN A   5      25.867   9.621  -6.795  1.00  0.00     0.045 C 
BRANCH  61  62
ATOM     62  CG  GLN A   5      25.179  10.876  -6.251  1.00  0.00     0.102 C 
BRANCH  62  63
ATOM     63  CD  GLN A   5      25.833  11.305  -4.979  1.00  0.00     0.217 C 
ATOM     64  NE2 GLN A   5      25.405  10.737  -3.742  1.00  0.00    -0.370 N 
ATOM     65  OE1 GLN A   5      26.779  12.137  -4.998  1.00  0.00    -0.275 OA
ATOM     66  H   UNL     1      25.856  11.027  -2.846  1.00  0.00     0.159 HD
ATOM     67  H   UNL     1      24.641  10.026  -3.716  1.00  0.00     0.159 HD
ENDBRANCH  62  63
ENDBRANCH  61  62
ENDBRANCH  45  61
ENDBRANCH  42  45
ENDBRANCH  40  41
BRANCH  40  68
ATOM     68  CB  LEU A   4      20.656   7.999  -9.273  1.00  0.00     0.038 C 
BRANCH  68  69
ATOM     69  CG  LEU A   4      21.449   6.770  -9.769  1.00  0.00    -0.015 C 
ATOM     70  CD1 LEU A   4      21.763   5.779  -8.639  1.00  0.00     0.007 C 
ATOM     71  CD2 LEU A   4      20.662   6.066 -10.877  1.00  0.00     0.007 C 
ENDBRANCH  68  69
ENDBRANCH  40  68
ENDBRANCH   3  40
TORSDOF 29
