REMARK SMILES CC(C)C[C@H](NC(=O)[C@H](Cc1ccc(O)cc1)NC(=O)CNC(=O)[C@@H](N)CO)C(=O)N[C@@H](CCCNC(=N)N)C(=O)N[C@@H](CC(N)=O)C(=O)O
REMARK SMILES IDX 7 1 8 2 6 3 9 5 18 6 19 7 20 8 21 10 22 11 23 12 24 13 25 15
REMARK SMILES IDX 26 16 27 19 28 20 10 22 11 23 12 24 17 25 13 26 16 27 14 28
REMARK SMILES IDX 15 29 5 31 29 32 31 33 30 34 32 36 40 37 42 38 41 39 43 41
REMARK SMILES IDX 48 42 49 43 50 44 44 46 45 47 46 48 47 49 33 52 34 53 35 54
REMARK SMILES IDX 36 55 37 56 39 57 38 61 4 63 2 64 1 65 3 66
REMARK H PARENT 6 4 18 9 22 14 26 17 26 18 28 21 15 30 31 35 42 40 50 45 46 50
REMARK H PARENT 46 51 36 58 39 59 39 60 38 62
ROOT
ATOM      1  C   TYR A   3      20.044  10.083  -6.457  1.00  0.00     0.243 C 
ATOM      2  O   TYR A   3      20.170   9.168  -5.597  1.00  0.00    -0.273 OA
ATOM      3  N   LEU A   4      20.564   9.922  -7.767  1.00  0.00    -0.343 N 
ATOM      4  H   UNL     1      20.397  10.664  -8.486  1.00  0.00     0.164 HD
ENDROOT
BRANCH   1   5
ATOM      5  CA  TYR A   3      19.318  11.340  -6.121  1.00  0.00     0.175 C 
BRANCH   5   6
ATOM      6  N   TYR A   3      18.040  10.993  -5.528  1.00  0.00    -0.342 N 
ATOM      7  C   GLY A   2      16.869  11.762  -5.739  1.00  0.00     0.240 C 
ATOM      8  O   GLY A   2      16.902  12.807  -6.445  1.00  0.00    -0.273 OA
ATOM      9  H   UNL     1      18.005  10.229  -4.814  1.00  0.00     0.164 HD
BRANCH   7  10
ATOM     10  CA  GLY A   2      15.633  11.330  -5.024  1.00  0.00     0.216 C 
BRANCH  10  11
ATOM     11  N   GLY A   2      14.441  11.726  -5.742  1.00  0.00    -0.346 N 
ATOM     12  C   SER A   1      13.909  13.042  -5.628  1.00  0.00     0.239 C 
ATOM     13  O   SER A   1      14.446  13.867  -4.838  1.00  0.00    -0.273 OA
ATOM     14  H   UNL     1      13.860  10.960  -6.149  1.00  0.00     0.164 HD
BRANCH  12  15
ATOM     15  CA  SER A   1      12.658  13.408  -6.386  1.00  0.00     0.167 C 
BRANCH  15  16
ATOM     16  N   SER A   1      12.458  14.859  -6.402  1.00  0.00    -0.318 NA
ATOM     17  H   UNL     1      12.292  15.193  -5.425  1.00  0.00     0.119 HD
ATOM     18  H   UNL     1      13.321  15.330  -6.764  1.00  0.00     0.119 HD
ENDBRANCH  15  16
BRANCH  15  19
ATOM     19  CB  SER A   1      12.693  12.877  -7.835  1.00  0.00     0.184 C 
BRANCH  19  20
ATOM     20  OG  SER A   1      11.442  13.042  -8.445  1.00  0.00    -0.394 OA
ATOM     21  H   UNL     1      11.399  13.982  -8.760  1.00  0.00     0.210 HD
ENDBRANCH  19  20
ENDBRANCH  15  19
ENDBRANCH  12  15
ENDBRANCH  10  11
ENDBRANCH   7  10
ENDBRANCH   5   6
BRANCH   5  22
ATOM     22  CB  TYR A   3      20.137  12.246  -5.187  1.00  0.00     0.070 C 
BRANCH  22  23
ATOM     23  CG  TYR A   3      20.379  11.651  -3.819  1.00  0.00    -0.045 A 
ATOM     24  CD1 TYR A   3      19.434  11.831  -2.794  1.00  0.00     0.007 A 
ATOM     25  CD2 TYR A   3      21.522  10.874  -3.570  1.00  0.00     0.007 A 
ATOM     26  CE1 TYR A   3      19.628  11.237  -1.544  1.00  0.00     0.046 A 
ATOM     27  CE2 TYR A   3      21.703  10.266  -2.324  1.00  0.00     0.046 A 
ATOM     28  CZ  TYR A   3      20.761  10.449  -1.307  1.00  0.00     0.115 A 
BRANCH  28  29
ATOM     29  OH  TYR A   3      20.959   9.842  -0.069  1.00  0.00    -0.508 OA
ATOM     30  H   UNL     1      20.295   9.954   0.688  1.00  0.00     0.293 HD
ENDBRANCH  28  29
ENDBRANCH  22  23
ENDBRANCH   5  22
ENDBRANCH   1   5
BRANCH   3  31
ATOM     31  CA  LEU A   4      21.348   8.761  -8.138  1.00  0.00     0.171 C 
BRANCH  31  32
ATOM     32  C   LEU A   4      22.713   9.217  -8.520  1.00  0.00     0.243 C 
ATOM     33  N   ARG A   5      23.822   8.720  -7.785  1.00  0.00    -0.343 N 
ATOM     34  O   LEU A   4      22.877  10.033  -9.468  1.00  0.00    -0.273 OA
ATOM     35  H   UNL     1      23.667   8.031  -7.015  1.00  0.00     0.164 HD
BRANCH  33  36
ATOM     36  CA  ARG A   5      25.186   9.122  -8.072  1.00  0.00     0.171 C 
BRANCH  36  37
ATOM     37  C   ARG A   5      25.900   7.968  -8.685  1.00  0.00     0.243 C 
ATOM     38  N   ASN A   6      25.913   7.864 -10.102  1.00  0.00    -0.341 N 
ATOM     39  O   ARG A   5      26.447   7.087  -7.969  1.00  0.00    -0.273 OA
ATOM     40  H   UNL     1      25.488   8.647 -10.651  1.00  0.00     0.164 HD
BRANCH  38  41
ATOM     41  CA  ASN A   6      26.542   6.751 -10.804  1.00  0.00     0.201 C 
BRANCH  41  42
ATOM     42  C   ASN A   6      27.993   6.642 -10.416  1.00  0.00     0.326 C 
ATOM     43  O   ASN A   6      28.794   7.579 -10.677  1.00  0.00    -0.250 OA
BRANCH  42  44
ATOM     44  OXT ASN A   6      28.451   5.499  -9.768  1.00  0.00    -0.480 OA
ATOM     45  H   UNL     1      29.424   5.409  -9.500  1.00  0.00     0.296 HD
ENDBRANCH  42  44
ENDBRANCH  41  42
BRANCH  41  46
ATOM     46  CB  ASN A   6      26.424   6.947 -12.323  1.00  0.00     0.136 C 
BRANCH  46  47
ATOM     47  CG  ASN A   6      25.010   7.181 -12.773  1.00  0.00     0.220 C 
ATOM     48  ND2 ASN A   6      24.753   8.090 -13.833  1.00  0.00    -0.370 N 
ATOM     49  OD1 ASN A   6      24.053   6.558 -12.243  1.00  0.00    -0.275 OA
ATOM     50  H   UNL     1      25.533   8.600 -14.306  1.00  0.00     0.159 HD
ATOM     51  H   UNL     1      23.774   8.258 -14.156  1.00  0.00     0.159 HD
ENDBRANCH  46  47
ENDBRANCH  41  46
ENDBRANCH  38  41
ENDBRANCH  36  37
BRANCH  36  52
ATOM     52  CB  ARG A   5      25.863   9.604  -6.795  1.00  0.00     0.037 C 
BRANCH  52  53
ATOM     53  CG  ARG A   5      25.167  10.859  -6.270  1.00  0.00     0.024 C 
BRANCH  53  54
ATOM     54  CD  ARG A   5      25.840  11.391  -5.013  1.00  0.00     0.116 C 
BRANCH  54  55
ATOM     55  NE  ARG A   5      25.375  10.688  -3.819  1.00  0.00    -0.357 N 
ATOM     56  CZ  ARG A   5      25.472  11.283  -2.526  1.00  0.00     0.185 C 
ATOM     57  NH2 ARG A   5      26.109  12.548  -2.353  1.00  0.00    -0.370 N 
ATOM     58  H   UNL     1      24.890   9.766  -3.910  1.00  0.00     0.163 HD
ATOM     59  H   UNL     1      26.695  12.986  -3.096  1.00  0.00     0.159 HD
ATOM     60  H   UNL     1      26.086  13.025  -1.424  1.00  0.00     0.159 HD
BRANCH  56  61
ATOM     61  NH1 ARG A   5      24.966  10.672  -1.503  1.00  0.00    -0.270 NA
ATOM     62  H   UNL     1      25.012  11.075  -0.541  1.00  0.00     0.191 HD
ENDBRANCH  56  61
ENDBRANCH  54  55
ENDBRANCH  53  54
ENDBRANCH  52  53
ENDBRANCH  36  52
ENDBRANCH  33  36
ENDBRANCH  31  32
BRANCH  31  63
ATOM     63  CB  LEU A   4      20.655   8.000  -9.271  1.00  0.00     0.038 C 
BRANCH  63  64
ATOM     64  CG  LEU A   4      21.448   6.772  -9.768  1.00  0.00    -0.015 C 
ATOM     65  CD1 LEU A   4      21.762   5.779  -8.639  1.00  0.00     0.007 C 
ATOM     66  CD2 LEU A   4      20.661   6.068 -10.877  1.00  0.00     0.007 C 
ENDBRANCH  63  64
ENDBRANCH  31  63
ENDBRANCH   3  31
TORSDOF 27
