REMARK SMILES CC(C)C[C@H](NC(=O)[C@H](Cc1c[nH]cn1)NC(=O)[C@H](Cc1ccccc1)NC(=O)CN)C(=O)N[C@@H](CCCNC(=N)N)C(=O)N[C@@H](CC(N)=O)C(=O)O
REMARK SMILES IDX 5 1 6 2 7 3 8 4 9 6 16 7 17 8 18 9 19 11 27 12 28 13 29 14
REMARK SMILES IDX 30 16 31 17 20 20 21 21 22 22 26 23 23 24 25 25 24 26 10 27
REMARK SMILES IDX 11 28 15 29 12 30 14 31 13 32 32 34 34 35 33 36 35 38 43 39
REMARK SMILES IDX 45 40 44 41 46 43 51 44 52 45 53 46 47 48 48 49 49 50 50 51
REMARK SMILES IDX 36 54 37 55 38 56 39 57 40 58 42 59 41 63 4 65 2 66 1 67
REMARK SMILES IDX 3 68
REMARK H PARENT 6 5 16 10 27 15 31 18 31 19 13 33 34 37 45 42 53 47 49 52
REMARK H PARENT 49 53 39 60 42 61 42 62 41 64
ROOT
ATOM      1  CA  LEU A   4      -0.858  -1.120   1.105  1.00  0.00     0.171 C 
ENDROOT
BRANCH   1   2
ATOM      2  N   LEU A   4       0.171  -0.098   1.311  1.00  0.00    -0.342 N 
ATOM      3  C   HIS A   3       1.507  -0.219   0.801  1.00  0.00     0.243 C 
ATOM      4  O   HIS A   3       1.837  -1.233   0.129  1.00  0.00    -0.273 OA
ATOM      5  H   UNL     1      -0.041   0.703   1.946  1.00  0.00     0.164 HD
BRANCH   3   6
ATOM      6  CA  HIS A   3       2.499   0.893   1.047  1.00  0.00     0.177 C 
BRANCH   6   7
ATOM      7  N   HIS A   3       3.883   0.396   1.042  1.00  0.00    -0.342 N 
ATOM      8  C   PHE A   2       4.627   0.025  -0.133  1.00  0.00     0.243 C 
ATOM      9  O   PHE A   2       4.050  -0.070  -1.251  1.00  0.00    -0.273 OA
ATOM     10  H   UNL     1       4.381   0.372   1.962  1.00  0.00     0.164 HD
BRANCH   8  11
ATOM     11  CA  PHE A   2       6.112  -0.215  -0.017  1.00  0.00     0.175 C 
BRANCH  11  12
ATOM     12  N   PHE A   2       6.632  -0.859  -1.230  1.00  0.00    -0.343 N 
ATOM     13  C   GLY A   1       7.587  -1.930  -1.199  1.00  0.00     0.234 C 
ATOM     14  O   GLY A   1       7.960  -2.426  -0.103  1.00  0.00    -0.274 OA
ATOM     15  H   UNL     1       6.431  -0.411  -2.154  1.00  0.00     0.164 HD
BRANCH  13  16
ATOM     16  CA  GLY A   1       8.189  -2.434  -2.476  1.00  0.00     0.178 C 
BRANCH  16  17
ATOM     17  N   GLY A   1       9.326  -1.613  -2.879  1.00  0.00    -0.322 NA
ATOM     18  H   UNL     1      10.053  -1.665  -2.127  1.00  0.00     0.119 HD
ATOM     19  H   UNL     1       9.016  -0.619  -2.962  1.00  0.00     0.119 HD
ENDBRANCH  16  17
ENDBRANCH  13  16
ENDBRANCH  11  12
BRANCH  11  20
ATOM     20  CB  PHE A   2       6.846   1.117   0.227  1.00  0.00     0.070 C 
BRANCH  20  21
ATOM     21  CG  PHE A   2       8.303   0.893   0.540  1.00  0.00    -0.045 A 
ATOM     22  CD1 PHE A   2       8.687   0.403   1.802  1.00  0.00     0.004 A 
ATOM     23  CD2 PHE A   2       9.286   1.128  -0.435  1.00  0.00     0.004 A 
ATOM     24  CE1 PHE A   2      10.033   0.145   2.076  1.00  0.00     0.000 A 
ATOM     25  CE2 PHE A   2      10.632   0.869  -0.156  1.00  0.00     0.000 A 
ATOM     26  CZ  PHE A   2      11.004   0.379   1.100  1.00  0.00     0.000 A 
ENDBRANCH  20  21
ENDBRANCH  11  20
ENDBRANCH   8  11
ENDBRANCH   6   7
BRANCH   6  27
ATOM     27  CB  HIS A   3       2.283   2.059   0.061  1.00  0.00     0.093 C 
BRANCH  27  28
ATOM     28  CG  HIS A   3       3.311   3.135   0.241  1.00  0.00     0.061 A 
ATOM     29  ND1 HIS A   3       4.308   3.377  -0.632  1.00  0.00    -0.242 NA
ATOM     30  CD2 HIS A   3       3.425   3.975   1.326  1.00  0.00     0.107 A 
ATOM     31  CE1 HIS A   3       5.009   4.377  -0.057  1.00  0.00     0.196 A 
ATOM     32  NE2 HIS A   3       4.496   4.759   1.128  1.00  0.00    -0.351 N 
ATOM     33  H   UNL     1       4.858   5.504   1.760  1.00  0.00     0.167 HD
ENDBRANCH  27  28
ENDBRANCH   6  27
ENDBRANCH   3   6
ENDBRANCH   1   2
BRANCH   1  34
ATOM     34  C   LEU A   4      -2.189  -0.435   0.933  1.00  0.00     0.243 C 
ATOM     35  N   ARG A   5      -2.794  -0.347  -0.367  1.00  0.00    -0.343 N 
ATOM     36  O   LEU A   4      -2.743   0.113   1.927  1.00  0.00    -0.273 OA
ATOM     37  H   UNL     1      -2.328  -0.832  -1.166  1.00  0.00     0.164 HD
BRANCH  35  38
ATOM     38  CA  ARG A   5      -4.134   0.208  -0.573  1.00  0.00     0.171 C 
BRANCH  38  39
ATOM     39  C   ARG A   5      -5.150  -0.896  -0.437  1.00  0.00     0.243 C 
ATOM     40  N   ASN A   6      -6.165  -0.825   0.576  1.00  0.00    -0.341 N 
ATOM     41  O   ARG A   5      -5.105  -1.886  -1.219  1.00  0.00    -0.273 OA
ATOM     42  H   UNL     1      -6.146  -0.025   1.246  1.00  0.00     0.164 HD
BRANCH  40  43
ATOM     43  CA  ASN A   6      -7.304  -1.745   0.593  1.00  0.00     0.201 C 
BRANCH  43  44
ATOM     44  C   ASN A   6      -8.293  -1.329  -0.462  1.00  0.00     0.326 C 
ATOM     45  O   ASN A   6      -8.781  -0.167  -0.448  1.00  0.00    -0.250 OA
BRANCH  44  46
ATOM     46  OXT ASN A   6      -8.664  -2.227  -1.456  1.00  0.00    -0.480 OA
ATOM     47  H   UNL     1      -9.331  -1.962  -2.171  1.00  0.00     0.296 HD
ENDBRANCH  44  46
ENDBRANCH  43  44
BRANCH  43  48
ATOM     48  CB  ASN A   6      -7.951  -1.770   1.989  1.00  0.00     0.136 C 
BRANCH  48  49
ATOM     49  CG  ASN A   6      -9.041  -2.801   2.073  1.00  0.00     0.220 C 
ATOM     50  ND2 ASN A   6      -8.720  -4.174   2.298  1.00  0.00    -0.370 N 
ATOM     51  OD1 ASN A   6     -10.243  -2.458   1.907  1.00  0.00    -0.275 OA
ATOM     52  H   UNL     1      -7.732  -4.473   2.451  1.00  0.00     0.159 HD
ATOM     53  H   UNL     1      -9.477  -4.893   2.311  1.00  0.00     0.159 HD
ENDBRANCH  48  49
ENDBRANCH  43  48
ENDBRANCH  40  43
ENDBRANCH  38  39
BRANCH  38  54
ATOM     54  CB  ARG A   5      -4.222   0.876  -1.960  1.00  0.00     0.037 C 
BRANCH  54  55
ATOM     55  CG  ARG A   5      -5.535   1.650  -2.148  1.00  0.00     0.024 C 
BRANCH  55  56
ATOM     56  CD  ARG A   5      -5.603   2.280  -3.543  1.00  0.00     0.116 C 
BRANCH  56  57
ATOM     57  NE  ARG A   5      -6.833   3.057  -3.698  1.00  0.00    -0.357 N 
ATOM     58  CZ  ARG A   5      -7.024   4.402  -3.220  1.00  0.00     0.185 C 
ATOM     59  NH2 ARG A   5      -8.248   5.079  -3.509  1.00  0.00    -0.370 N 
ATOM     60  H   UNL     1      -7.606   2.620  -4.246  1.00  0.00     0.163 HD
ATOM     61  H   UNL     1      -8.392   6.071  -3.211  1.00  0.00     0.159 HD
ATOM     62  H   UNL     1      -9.014   4.594  -4.026  1.00  0.00     0.159 HD
BRANCH  58  63
ATOM     63  NH1 ARG A   5      -6.107   5.023  -2.546  1.00  0.00    -0.270 NA
ATOM     64  H   UNL     1      -5.187   4.605  -2.295  1.00  0.00     0.191 HD
ENDBRANCH  58  63
ENDBRANCH  56  57
ENDBRANCH  55  56
ENDBRANCH  54  55
ENDBRANCH  38  54
ENDBRANCH  35  38
ENDBRANCH   1  34
BRANCH   1  65
ATOM     65  CB  LEU A   4      -0.849  -2.104   2.301  1.00  0.00     0.038 C 
BRANCH  65  66
ATOM     66  CG  LEU A   4      -1.653  -3.416   2.116  1.00  0.00    -0.015 C 
ATOM     67  CD1 LEU A   4      -1.166  -4.250   0.921  1.00  0.00     0.007 C 
ATOM     68  CD2 LEU A   4      -3.169  -3.193   2.048  1.00  0.00     0.007 C 
ENDBRANCH  65  66
ENDBRANCH   1  65
TORSDOF 26
