REMARK SMILES C[C@H](NC(=O)[C@H](Cc1ccc(O)cc1)NC(=O)[C@H](Cc1ccccc1)NC(=O)[C@@H](N)CO)C(=O)N[C@@H](CCCNC(=N)N)C(=O)N[C@@H](CC(N)=O)C(=O)O
REMARK SMILES IDX 4 1 5 2 3 3 6 5 15 6 16 7 17 8 18 10 26 11 27 12 28 13 29 15
REMARK SMILES IDX 30 16 31 19 32 20 19 22 20 23 21 24 25 25 22 26 24 27 23 28
REMARK SMILES IDX 7 29 8 30 9 31 14 32 10 33 13 34 11 35 12 36 2 38 1 39 33 40
REMARK SMILES IDX 35 41 34 42 36 44 44 45 46 46 45 47 47 49 52 50 53 51 54 52
REMARK SMILES IDX 48 54 49 55 50 56 51 57 37 60 38 61 39 62 40 63 41 64 43 65
REMARK SMILES IDX 42 69
REMARK H PARENT 3 4 15 9 26 14 30 17 30 18 32 21 12 37 35 43 46 48 54 53 50 58
REMARK H PARENT 50 59 40 66 43 67 43 68 42 70
ROOT
ATOM      1  C   TYR A   3       0.941  -1.500  -0.455  1.00  0.00     0.243 C 
ATOM      2  O   TYR A   3       0.937  -0.378  -1.033  1.00  0.00    -0.273 OA
ATOM      3  N   ALA A   4      -0.204  -2.361  -0.552  1.00  0.00    -0.343 N 
ATOM      4  H   UNL     1      -0.286  -3.159   0.118  1.00  0.00     0.164 HD
ENDROOT
BRANCH   1   5
ATOM      5  CA  TYR A   3       2.140  -1.933   0.350  1.00  0.00     0.175 C 
BRANCH   5   6
ATOM      6  N   TYR A   3       3.379  -1.691  -0.408  1.00  0.00    -0.342 N 
ATOM      7  C   PHE A   2       3.994  -0.404  -0.612  1.00  0.00     0.243 C 
ATOM      8  O   PHE A   2       3.540   0.612  -0.019  1.00  0.00    -0.273 OA
ATOM      9  H   UNL     1       3.707  -2.487  -0.996  1.00  0.00     0.164 HD
BRANCH   7  10
ATOM     10  CA  PHE A   2       5.092  -0.210  -1.638  1.00  0.00     0.175 C 
BRANCH  10  11
ATOM     11  N   PHE A   2       5.788   1.059  -1.388  1.00  0.00    -0.343 N 
ATOM     12  C   SER A   1       5.654   2.211  -2.236  1.00  0.00     0.239 C 
ATOM     13  O   SER A   1       4.897   2.177  -3.245  1.00  0.00    -0.273 OA
ATOM     14  H   UNL     1       6.303   1.175  -0.487  1.00  0.00     0.164 HD
BRANCH  12  15
ATOM     15  CA  SER A   1       6.358   3.492  -1.871  1.00  0.00     0.167 C 
BRANCH  15  16
ATOM     16  N   SER A   1       6.650   4.275  -3.074  1.00  0.00    -0.318 NA
ATOM     17  H   UNL     1       7.261   3.700  -3.700  1.00  0.00     0.119 HD
ATOM     18  H   UNL     1       7.227   5.103  -2.801  1.00  0.00     0.119 HD
ENDBRANCH  15  16
BRANCH  15  19
ATOM     19  CB  SER A   1       5.480   4.299  -0.905  1.00  0.00     0.184 C 
BRANCH  19  20
ATOM     20  OG  SER A   1       6.183   5.419  -0.442  1.00  0.00    -0.394 OA
ATOM     21  H   UNL     1       5.591   5.863   0.219  1.00  0.00     0.210 HD
ENDBRANCH  19  20
ENDBRANCH  15  19
ENDBRANCH  12  15
ENDBRANCH  10  11
BRANCH  10  22
ATOM     22  CB  PHE A   2       6.117  -1.365  -1.737  1.00  0.00     0.070 C 
BRANCH  22  23
ATOM     23  CG  PHE A   2       6.820  -1.707  -0.443  1.00  0.00    -0.045 A 
ATOM     24  CD1 PHE A   2       6.423  -2.828   0.308  1.00  0.00     0.004 A 
ATOM     25  CD2 PHE A   2       7.936  -0.964  -0.020  1.00  0.00     0.004 A 
ATOM     26  CE1 PHE A   2       7.123  -3.189   1.461  1.00  0.00     0.000 A 
ATOM     27  CE2 PHE A   2       8.616  -1.313   1.151  1.00  0.00     0.000 A 
ATOM     28  CZ  PHE A   2       8.210  -2.424   1.891  1.00  0.00     0.000 A 
ENDBRANCH  22  23
ENDBRANCH  10  22
ENDBRANCH   7  10
ENDBRANCH   5   6
BRANCH   5  29
ATOM     29  CB  TYR A   3       2.123  -1.291   1.753  1.00  0.00     0.070 C 
BRANCH  29  30
ATOM     30  CG  TYR A   3       3.331  -1.660   2.578  1.00  0.00    -0.045 A 
ATOM     31  CD1 TYR A   3       4.292  -0.691   2.910  1.00  0.00     0.007 A 
ATOM     32  CD2 TYR A   3       3.483  -2.970   3.061  1.00  0.00     0.007 A 
ATOM     33  CE1 TYR A   3       5.382  -1.025   3.720  1.00  0.00     0.046 A 
ATOM     34  CE2 TYR A   3       4.572  -3.302   3.874  1.00  0.00     0.046 A 
ATOM     35  CZ  TYR A   3       5.523  -2.327   4.208  1.00  0.00     0.115 A 
BRANCH  35  36
ATOM     36  OH  TYR A   3       6.610  -2.643   5.020  1.00  0.00    -0.508 OA
ATOM     37  H   UNL     1       6.739  -3.578   5.387  1.00  0.00     0.293 HD
ENDBRANCH  35  36
ENDBRANCH  29  30
ENDBRANCH   5  29
ENDBRANCH   1   5
BRANCH   3  38
ATOM     38  CA  ALA A   4      -1.274  -2.134  -1.528  1.00  0.00     0.168 C 
ATOM     39  CB  ALA A   4      -1.878  -3.468  -1.966  1.00  0.00     0.041 C 
BRANCH  38  40
ATOM     40  C   ALA A   4      -2.346  -1.254  -0.946  1.00  0.00     0.242 C 
ATOM     41  N   ARG A   5      -3.084  -0.368  -1.800  1.00  0.00    -0.343 N 
ATOM     42  O   ALA A   4      -2.650  -1.358   0.273  1.00  0.00    -0.273 OA
ATOM     43  H   UNL     1      -2.790  -0.284  -2.801  1.00  0.00     0.164 HD
BRANCH  41  44
ATOM     44  CA  ARG A   5      -4.288   0.335  -1.345  1.00  0.00     0.171 C 
BRANCH  44  45
ATOM     45  C   ARG A   5      -5.406  -0.658  -1.140  1.00  0.00     0.243 C 
ATOM     46  N   ASN A   6      -6.246  -0.570   0.022  1.00  0.00    -0.341 N 
ATOM     47  O   ARG A   5      -5.625  -1.537  -2.017  1.00  0.00    -0.273 OA
ATOM     48  H   UNL     1      -6.006   0.139   0.748  1.00  0.00     0.164 HD
BRANCH  46  49
ATOM     49  CA  ASN A   6      -7.349  -1.508   0.264  1.00  0.00     0.201 C 
BRANCH  49  50
ATOM     50  C   ASN A   6      -8.408  -1.380  -0.799  1.00  0.00     0.326 C 
ATOM     51  O   ASN A   6      -8.768  -0.244  -1.211  1.00  0.00    -0.250 OA
BRANCH  50  52
ATOM     52  OXT ASN A   6      -9.012  -2.522  -1.311  1.00  0.00    -0.480 OA
ATOM     53  H   UNL     1      -9.731  -2.456  -2.022  1.00  0.00     0.296 HD
ENDBRANCH  50  52
ENDBRANCH  49  50
BRANCH  49  54
ATOM     54  CB  ASN A   6      -7.944  -1.331   1.678  1.00  0.00     0.136 C 
BRANCH  54  55
ATOM     55  CG  ASN A   6      -8.595   0.010   1.891  1.00  0.00     0.220 C 
ATOM     56  ND2 ASN A   6      -9.988   0.190   1.629  1.00  0.00    -0.370 N 
ATOM     57  OD1 ASN A   6      -7.908   0.985   2.293  1.00  0.00    -0.275 OA
ATOM     58  H   UNL     1     -10.576  -0.610   1.307  1.00  0.00     0.159 HD
ATOM     59  H   UNL     1     -10.440   1.118   1.789  1.00  0.00     0.159 HD
ENDBRANCH  54  55
ENDBRANCH  49  54
ENDBRANCH  46  49
ENDBRANCH  44  45
BRANCH  44  60
ATOM     60  CB  ARG A   5      -4.690   1.412  -2.377  1.00  0.00     0.037 C 
BRANCH  60  61
ATOM     61  CG  ARG A   5      -5.933   2.235  -1.992  1.00  0.00     0.024 C 
BRANCH  61  62
ATOM     62  CD  ARG A   5      -5.699   3.139  -0.774  1.00  0.00     0.116 C 
BRANCH  62  63
ATOM     63  NE  ARG A   5      -6.860   4.001  -0.540  1.00  0.00    -0.357 N 
ATOM     64  CZ  ARG A   5      -6.921   4.982   0.509  1.00  0.00     0.185 C 
ATOM     65  NH2 ARG A   5      -8.080   5.808   0.627  1.00  0.00    -0.370 N 
ATOM     66  H   UNL     1      -7.688   3.920  -1.173  1.00  0.00     0.163 HD
ATOM     67  H   UNL     1      -8.877   5.705  -0.040  1.00  0.00     0.159 HD
ATOM     68  H   UNL     1      -8.144   6.531   1.380  1.00  0.00     0.159 HD
BRANCH  64  69
ATOM     69  NH1 ARG A   5      -5.948   5.136   1.353  1.00  0.00    -0.270 NA
ATOM     70  H   UNL     1      -5.070   4.571   1.330  1.00  0.00     0.191 HD
ENDBRANCH  64  69
ENDBRANCH  62  63
ENDBRANCH  61  62
ENDBRANCH  60  61
ENDBRANCH  44  60
ENDBRANCH  41  44
ENDBRANCH  38  40
ENDBRANCH   3  38
TORSDOF 27
