REMARK SMILES CC(C)C[C@H](NC(=O)[C@@H](NC(=O)[C@H](CC(N)=O)NC(=O)[C@@H](N)CO)C(C)C)C(=O)N[C@@H](CCCNC(=N)N)C(=O)N[C@@H](CC(N)=O)C(=O)O
REMARK SMILES IDX 7 1 8 2 6 3 9 5 10 6 11 7 12 8 13 10 18 11 19 12 20 13 21 15
REMARK SMILES IDX 22 16 23 19 24 20 14 22 15 23 16 24 17 25 25 28 26 29 27 30
REMARK SMILES IDX 5 31 28 32 30 33 29 34 31 36 39 37 41 38 40 39 42 41 47 42
REMARK SMILES IDX 48 43 49 44 43 46 44 47 45 48 46 49 32 52 33 53 34 54 35 55
REMARK SMILES IDX 36 56 38 57 37 61 4 63 2 64 1 65 3 66
REMARK H PARENT 6 4 10 9 18 14 22 17 22 18 24 21 16 26 16 27 30 35 41 40 49 45
REMARK H PARENT 45 50 45 51 35 58 38 59 38 60 37 62
ROOT
ATOM      1  C   VAL A   3      20.038  10.090  -6.461  1.00  0.00     0.243 C 
ATOM      2  O   VAL A   3      20.155   9.172  -5.603  1.00  0.00    -0.273 OA
ATOM      3  N   LEU A   4      20.562   9.925  -7.770  1.00  0.00    -0.343 N 
ATOM      4  H   UNL     1      20.400  10.666  -8.489  1.00  0.00     0.164 HD
ENDROOT
BRANCH   1   5
ATOM      5  CA  VAL A   3      19.334  11.364  -6.124  1.00  0.00     0.174 C 
BRANCH   5   6
ATOM      6  N   VAL A   3      18.079  11.039  -5.487  1.00  0.00    -0.342 N 
ATOM      7  C   ASN A   2      16.871  11.739  -5.744  1.00  0.00     0.243 C 
ATOM      8  O   ASN A   2      16.879  12.776  -6.465  1.00  0.00    -0.273 OA
ATOM      9  H   UNL     1      18.149  10.452  -4.630  1.00  0.00     0.164 HD
BRANCH   7  10
ATOM     10  CA  ASN A   2      15.623  11.281  -5.040  1.00  0.00     0.180 C 
BRANCH  10  11
ATOM     11  N   ASN A   2      14.440  11.728  -5.759  1.00  0.00    -0.342 N 
ATOM     12  C   SER A   1      13.916  13.045  -5.632  1.00  0.00     0.239 C 
ATOM     13  O   SER A   1      14.453  13.861  -4.833  1.00  0.00    -0.273 OA
ATOM     14  H   UNL     1      13.853  11.002  -6.222  1.00  0.00     0.164 HD
BRANCH  12  15
ATOM     15  CA  SER A   1      12.662  13.412  -6.387  1.00  0.00     0.167 C 
BRANCH  15  16
ATOM     16  N   SER A   1      12.457  14.862  -6.396  1.00  0.00    -0.318 NA
ATOM     17  H   UNL     1      13.320  15.337  -6.751  1.00  0.00     0.119 HD
ATOM     18  H   UNL     1      12.288  15.189  -5.417  1.00  0.00     0.119 HD
ENDBRANCH  15  16
BRANCH  15  19
ATOM     19  CB  SER A   1      12.691  12.891  -7.843  1.00  0.00     0.184 C 
BRANCH  19  20
ATOM     20  OG  SER A   1      11.437  13.054  -8.445  1.00  0.00    -0.394 OA
ATOM     21  H   UNL     1      10.843  12.356  -8.063  1.00  0.00     0.210 HD
ENDBRANCH  19  20
ENDBRANCH  15  19
ENDBRANCH  12  15
ENDBRANCH  10  11
BRANCH  10  22
ATOM     22  CB  ASN A   2      15.580   9.737  -4.916  1.00  0.00     0.134 C 
BRANCH  22  23
ATOM     23  CG  ASN A   2      14.414   9.285  -4.095  1.00  0.00     0.220 C 
ATOM     24  ND2 ASN A   2      13.284   8.668  -4.714  1.00  0.00    -0.370 N 
ATOM     25  OD1 ASN A   2      14.419   9.465  -2.848  1.00  0.00    -0.275 OA
ATOM     26  H   UNL     1      13.256   8.514  -5.746  1.00  0.00     0.159 HD
ATOM     27  H   UNL     1      12.469   8.365  -4.137  1.00  0.00     0.159 HD
ENDBRANCH  22  23
ENDBRANCH  10  22
ENDBRANCH   7  10
ENDBRANCH   5   6
BRANCH   5  28
ATOM     28  CB  VAL A   3      20.197  12.264  -5.209  1.00  0.00     0.015 C 
ATOM     29  CG1 VAL A   3      20.427  11.689  -3.797  1.00  0.00     0.010 C 
ATOM     30  CG2 VAL A   3      19.617  13.682  -5.104  1.00  0.00     0.010 C 
ENDBRANCH   5  28
ENDBRANCH   1   5
BRANCH   3  31
ATOM     31  CA  LEU A   4      21.347   8.762  -8.138  1.00  0.00     0.171 C 
BRANCH  31  32
ATOM     32  C   LEU A   4      22.712   9.217  -8.520  1.00  0.00     0.243 C 
ATOM     33  N   ARG A   5      23.822   8.720  -7.785  1.00  0.00    -0.343 N 
ATOM     34  O   LEU A   4      22.876  10.033  -9.468  1.00  0.00    -0.273 OA
ATOM     35  H   UNL     1      23.666   8.031  -7.015  1.00  0.00     0.164 HD
BRANCH  33  36
ATOM     36  CA  ARG A   5      25.185   9.122  -8.073  1.00  0.00     0.171 C 
BRANCH  36  37
ATOM     37  C   ARG A   5      25.899   7.968  -8.685  1.00  0.00     0.243 C 
ATOM     38  N   ASN A   6      25.913   7.864 -10.102  1.00  0.00    -0.341 N 
ATOM     39  O   ARG A   5      26.447   7.087  -7.969  1.00  0.00    -0.273 OA
ATOM     40  H   UNL     1      25.489   8.647 -10.651  1.00  0.00     0.164 HD
BRANCH  38  41
ATOM     41  CA  ASN A   6      26.542   6.751 -10.804  1.00  0.00     0.201 C 
BRANCH  41  42
ATOM     42  C   ASN A   6      27.993   6.642 -10.416  1.00  0.00     0.326 C 
ATOM     43  O   ASN A   6      28.794   7.579 -10.677  1.00  0.00    -0.250 OA
BRANCH  42  44
ATOM     44  OXT ASN A   6      28.451   5.499  -9.768  1.00  0.00    -0.480 OA
ATOM     45  H   UNL     1      29.424   5.409  -9.499  1.00  0.00     0.296 HD
ENDBRANCH  42  44
ENDBRANCH  41  42
BRANCH  41  46
ATOM     46  CB  ASN A   6      26.424   6.946 -12.323  1.00  0.00     0.136 C 
BRANCH  46  47
ATOM     47  CG  ASN A   6      25.010   7.180 -12.773  1.00  0.00     0.220 C 
ATOM     48  ND2 ASN A   6      24.753   8.090 -13.833  1.00  0.00    -0.370 N 
ATOM     49  OD1 ASN A   6      24.053   6.558 -12.243  1.00  0.00    -0.275 OA
ATOM     50  H   UNL     1      25.533   8.600 -14.306  1.00  0.00     0.159 HD
ATOM     51  H   UNL     1      23.775   8.258 -14.156  1.00  0.00     0.159 HD
ENDBRANCH  46  47
ENDBRANCH  41  46
ENDBRANCH  38  41
ENDBRANCH  36  37
BRANCH  36  52
ATOM     52  CB  ARG A   5      25.863   9.605  -6.796  1.00  0.00     0.037 C 
BRANCH  52  53
ATOM     53  CG  ARG A   5      25.167  10.861  -6.272  1.00  0.00     0.024 C 
BRANCH  53  54
ATOM     54  CD  ARG A   5      25.841  11.391  -5.015  1.00  0.00     0.116 C 
BRANCH  54  55
ATOM     55  NE  ARG A   5      25.377  10.685  -3.823  1.00  0.00    -0.357 N 
ATOM     56  CZ  ARG A   5      25.468  11.279  -2.527  1.00  0.00     0.185 C 
ATOM     57  NH2 ARG A   5      26.106  12.541  -2.350  1.00  0.00    -0.370 N 
ATOM     58  H   UNL     1      24.901   9.759  -3.922  1.00  0.00     0.163 HD
ATOM     59  H   UNL     1      26.693  12.982  -3.090  1.00  0.00     0.159 HD
ATOM     60  H   UNL     1      26.083  13.006  -1.415  1.00  0.00     0.159 HD
BRANCH  56  61
ATOM     61  NH1 ARG A   5      24.958  10.679  -1.500  1.00  0.00    -0.270 NA
ATOM     62  H   UNL     1      24.477   9.755  -1.584  1.00  0.00     0.191 HD
ENDBRANCH  56  61
ENDBRANCH  54  55
ENDBRANCH  53  54
ENDBRANCH  52  53
ENDBRANCH  36  52
ENDBRANCH  33  36
ENDBRANCH  31  32
BRANCH  31  63
ATOM     63  CB  LEU A   4      20.654   8.000  -9.270  1.00  0.00     0.038 C 
BRANCH  63  64
ATOM     64  CG  LEU A   4      21.448   6.772  -9.768  1.00  0.00    -0.015 C 
ATOM     65  CD1 LEU A   4      21.762   5.779  -8.639  1.00  0.00     0.007 C 
ATOM     66  CD2 LEU A   4      20.661   6.068 -10.877  1.00  0.00     0.007 C 
ENDBRANCH  63  64
ENDBRANCH  31  63
ENDBRANCH   3  31
TORSDOF 27
