REMARK SMILES CC[C@H](C)[C@H](NC(=O)CNC(=O)[C@@H](N)CO)C(=O)N[C@@H](CC(C)C)C(=O)N[C@@H](CCCNC(=N)N)C(=O)N[C@@H](CC(N)=O)C(=O)O
REMARK SMILES IDX 17 1 18 2 19 3 5 5 6 6 7 7 8 8 9 10 10 11 11 12 12 13 13 15
REMARK SMILES IDX 14 16 15 19 16 20 3 22 4 23 2 24 1 25 20 26 25 27 27 28
REMARK SMILES IDX 26 29 28 31 36 32 38 33 37 34 39 36 44 37 45 38 46 39 40 41
REMARK SMILES IDX 41 42 42 43 43 44 29 47 30 48 31 49 32 50 33 51 35 52 34 56
REMARK SMILES IDX 21 58 22 59 23 60 24 61
REMARK H PARENT 19 4 6 9 10 14 14 17 14 18 16 21 27 30 38 35 46 40 42 45 42 46
REMARK H PARENT 32 53 35 54 35 55 34 57
ROOT
ATOM      1  C   ILE A   3      20.029  10.075  -6.466  1.00  0.00     0.243 C 
ATOM      2  O   ILE A   3      20.155   9.154  -5.613  1.00  0.00    -0.273 OA
ATOM      3  N   LEU A   4      20.564   9.923  -7.771  1.00  0.00    -0.343 N 
ATOM      4  H   UNL     1      20.405  10.668  -8.488  1.00  0.00     0.164 HD
ENDROOT
BRANCH   1   5
ATOM      5  CA  ILE A   3      19.308  11.338  -6.127  1.00  0.00     0.174 C 
BRANCH   5   6
ATOM      6  N   ILE A   3      18.041  11.006  -5.504  1.00  0.00    -0.343 N 
ATOM      7  C   GLY A   2      16.862  11.757  -5.738  1.00  0.00     0.240 C 
ATOM      8  O   GLY A   2      16.888  12.793  -6.459  1.00  0.00    -0.273 OA
ATOM      9  H   UNL     1      18.019  10.270  -4.761  1.00  0.00     0.164 HD
BRANCH   7  10
ATOM     10  CA  GLY A   2      15.627  11.326  -5.025  1.00  0.00     0.216 C 
BRANCH  10  11
ATOM     11  N   GLY A   2      14.434  11.725  -5.742  1.00  0.00    -0.346 N 
ATOM     12  C   SER A   1      13.906  13.043  -5.632  1.00  0.00     0.239 C 
ATOM     13  O   SER A   1      14.448  13.870  -4.846  1.00  0.00    -0.273 OA
ATOM     14  H   UNL     1      13.847  10.959  -6.141  1.00  0.00     0.164 HD
BRANCH  12  15
ATOM     15  CA  SER A   1      12.651  13.406  -6.382  1.00  0.00     0.167 C 
BRANCH  15  16
ATOM     16  N   SER A   1      12.469  14.860  -6.387  1.00  0.00    -0.318 NA
ATOM     17  H   UNL     1      11.586  15.086  -6.900  1.00  0.00     0.119 HD
ATOM     18  H   UNL     1      12.303  15.176  -5.403  1.00  0.00     0.119 HD
ENDBRANCH  15  16
BRANCH  15  19
ATOM     19  CB  SER A   1      12.696  12.882  -7.836  1.00  0.00     0.184 C 
BRANCH  19  20
ATOM     20  OG  SER A   1      11.446  13.031  -8.451  1.00  0.00    -0.394 OA
ATOM     21  H   UNL     1      10.854  12.331  -8.070  1.00  0.00     0.210 HD
ENDBRANCH  19  20
ENDBRANCH  15  19
ENDBRANCH  12  15
ENDBRANCH  10  11
ENDBRANCH   7  10
ENDBRANCH   5   6
BRANCH   5  22
ATOM     22  CB  ILE A   3      20.170  12.250  -5.227  1.00  0.00     0.018 C 
ATOM     23  CG1 ILE A   3      19.602  13.678  -5.157  1.00  0.00     0.010 C 
BRANCH  22  24
ATOM     24  CG2 ILE A   3      20.408  11.689  -3.800  1.00  0.00     0.002 C 
ATOM     25  CD1 ILE A   3      21.802  12.056  -3.298  1.00  0.00     0.004 C 
ENDBRANCH  22  24
ENDBRANCH   5  22
ENDBRANCH   1   5
BRANCH   3  26
ATOM     26  CA  LEU A   4      21.349   8.761  -8.141  1.00  0.00     0.171 C 
BRANCH  26  27
ATOM     27  C   LEU A   4      22.714   9.217  -8.522  1.00  0.00     0.243 C 
ATOM     28  N   ARG A   5      23.822   8.721  -7.786  1.00  0.00    -0.343 N 
ATOM     29  O   LEU A   4      22.878  10.033  -9.469  1.00  0.00    -0.273 OA
ATOM     30  H   UNL     1      23.667   8.031  -7.016  1.00  0.00     0.164 HD
BRANCH  28  31
ATOM     31  CA  ARG A   5      25.186   9.122  -8.073  1.00  0.00     0.171 C 
BRANCH  31  32
ATOM     32  C   ARG A   5      25.900   7.968  -8.685  1.00  0.00     0.243 C 
ATOM     33  N   ASN A   6      25.913   7.864 -10.102  1.00  0.00    -0.341 N 
ATOM     34  O   ARG A   5      26.447   7.087  -7.969  1.00  0.00    -0.273 OA
ATOM     35  H   UNL     1      25.488   8.647 -10.651  1.00  0.00     0.164 HD
BRANCH  33  36
ATOM     36  CA  ASN A   6      26.542   6.751 -10.804  1.00  0.00     0.201 C 
BRANCH  36  37
ATOM     37  C   ASN A   6      27.993   6.642 -10.416  1.00  0.00     0.326 C 
ATOM     38  O   ASN A   6      28.794   7.579 -10.677  1.00  0.00    -0.250 OA
BRANCH  37  39
ATOM     39  OXT ASN A   6      28.451   5.499  -9.768  1.00  0.00    -0.480 OA
ATOM     40  H   UNL     1      29.424   5.409  -9.499  1.00  0.00     0.296 HD
ENDBRANCH  37  39
ENDBRANCH  36  37
BRANCH  36  41
ATOM     41  CB  ASN A   6      26.424   6.947 -12.323  1.00  0.00     0.136 C 
BRANCH  41  42
ATOM     42  CG  ASN A   6      25.010   7.180 -12.773  1.00  0.00     0.220 C 
ATOM     43  ND2 ASN A   6      24.753   8.090 -13.833  1.00  0.00    -0.370 N 
ATOM     44  OD1 ASN A   6      24.053   6.558 -12.243  1.00  0.00    -0.275 OA
ATOM     45  H   UNL     1      23.775   8.258 -14.156  1.00  0.00     0.159 HD
ATOM     46  H   UNL     1      25.533   8.600 -14.306  1.00  0.00     0.159 HD
ENDBRANCH  41  42
ENDBRANCH  36  41
ENDBRANCH  33  36
ENDBRANCH  31  32
BRANCH  31  47
ATOM     47  CB  ARG A   5      25.862   9.605  -6.795  1.00  0.00     0.037 C 
BRANCH  47  48
ATOM     48  CG  ARG A   5      25.165  10.859  -6.269  1.00  0.00     0.024 C 
BRANCH  48  49
ATOM     49  CD  ARG A   5      25.839  11.391  -5.013  1.00  0.00     0.116 C 
BRANCH  49  50
ATOM     50  NE  ARG A   5      25.378  10.686  -3.820  1.00  0.00    -0.357 N 
ATOM     51  CZ  ARG A   5      25.469  11.281  -2.526  1.00  0.00     0.185 C 
ATOM     52  NH2 ARG A   5      26.107  12.546  -2.351  1.00  0.00    -0.370 N 
ATOM     53  H   UNL     1      24.896   9.762  -3.912  1.00  0.00     0.163 HD
ATOM     54  H   UNL     1      26.079  13.024  -1.423  1.00  0.00     0.159 HD
ATOM     55  H   UNL     1      26.697  12.982  -3.092  1.00  0.00     0.159 HD
BRANCH  51  56
ATOM     56  NH1 ARG A   5      24.954  10.672  -1.507  1.00  0.00    -0.270 NA
ATOM     57  H   UNL     1      24.995  11.076  -0.545  1.00  0.00     0.191 HD
ENDBRANCH  51  56
ENDBRANCH  49  50
ENDBRANCH  48  49
ENDBRANCH  47  48
ENDBRANCH  31  47
ENDBRANCH  28  31
ENDBRANCH  26  27
BRANCH  26  58
ATOM     58  CB  LEU A   4      20.655   8.000  -9.273  1.00  0.00     0.038 C 
BRANCH  58  59
ATOM     59  CG  LEU A   4      21.448   6.771  -9.769  1.00  0.00    -0.015 C 
ATOM     60  CD1 LEU A   4      21.762   5.779  -8.639  1.00  0.00     0.007 C 
ATOM     61  CD2 LEU A   4      20.661   6.067 -10.878  1.00  0.00     0.007 C 
ENDBRANCH  58  59
ENDBRANCH  26  58
ENDBRANCH   3  26
TORSDOF 26
