REMARK SMILES CC(C)[C@H](NC(=O)[C@H](CCCCN)NC(=O)[C@H](Cc1ccccc1)NC(=O)[C@@H](N)CO)C(=O)N[C@@H](CCCNC(=N)N)C(=O)N[C@@H](CC(N)=O)C(=O)O
REMARK SMILES IDX 6 1 7 2 5 3 8 5 14 6 15 7 16 8 17 10 25 11 26 12 27 13 28 15
REMARK SMILES IDX 29 16 30 19 31 20 18 22 19 23 20 24 24 25 21 26 23 27 22 28
REMARK SMILES IDX 9 29 10 30 11 31 12 32 13 33 4 36 32 37 34 38 33 39 35 41
REMARK SMILES IDX 43 42 45 43 44 44 46 46 51 47 52 48 53 49 47 51 48 52 49 53
REMARK SMILES IDX 50 54 36 57 37 58 38 59 39 60 40 61 42 62 41 66 2 68 1 69
REMARK SMILES IDX 3 70
REMARK H PARENT 5 4 14 9 25 14 29 17 29 18 31 21 13 34 13 35 34 40 45 45 53 50
REMARK H PARENT 49 55 49 56 39 63 42 64 42 65 41 67
ROOT
ATOM      1  C   LYS A   3      -1.231  -0.642  -0.013  1.00  0.00     0.243 C 
ATOM      2  O   LYS A   3      -1.256  -0.530  -1.270  1.00  0.00    -0.273 OA
ATOM      3  N   VAL A   4      -0.124  -0.124   0.742  1.00  0.00    -0.342 N 
ATOM      4  H   UNL     1      -0.142  -0.231   1.781  1.00  0.00     0.164 HD
ENDROOT
BRANCH   1   5
ATOM      5  CA  LYS A   3      -2.348  -1.366   0.689  1.00  0.00     0.171 C 
BRANCH   5   6
ATOM      6  N   LYS A   3      -3.635  -0.928   0.143  1.00  0.00    -0.343 N 
ATOM      7  C   PHE A   2      -4.339   0.211   0.656  1.00  0.00     0.243 C 
ATOM      8  O   PHE A   2      -3.829   0.918   1.569  1.00  0.00    -0.273 OA
ATOM      9  H   UNL     1      -4.017  -1.412  -0.700  1.00  0.00     0.164 HD
BRANCH   7  10
ATOM     10  CA  PHE A   2      -5.683   0.581   0.089  1.00  0.00     0.175 C 
BRANCH  10  11
ATOM     11  N   PHE A   2      -6.629   0.832   1.181  1.00  0.00    -0.343 N 
ATOM     12  C   SER A   1      -7.174  -0.236   1.972  1.00  0.00     0.239 C 
ATOM     13  O   SER A   1      -6.710  -1.402   1.861  1.00  0.00    -0.273 OA
ATOM     14  H   UNL     1      -6.937   1.811   1.379  1.00  0.00     0.164 HD
BRANCH  12  15
ATOM     15  CA  SER A   1      -8.287   0.024   2.960  1.00  0.00     0.167 C 
BRANCH  15  16
ATOM     16  N   SER A   1      -7.836   0.894   4.049  1.00  0.00    -0.318 NA
ATOM     17  H   UNL     1      -7.028   0.434   4.529  1.00  0.00     0.119 HD
ATOM     18  H   UNL     1      -7.498   1.805   3.663  1.00  0.00     0.119 HD
ENDBRANCH  15  16
BRANCH  15  19
ATOM     19  CB  SER A   1      -9.515   0.634   2.270  1.00  0.00     0.184 C 
BRANCH  19  20
ATOM     20  OG  SER A   1     -10.001  -0.243   1.289  1.00  0.00    -0.394 OA
ATOM     21  H   UNL     1     -10.746   0.235   0.839  1.00  0.00     0.210 HD
ENDBRANCH  19  20
ENDBRANCH  15  19
ENDBRANCH  12  15
ENDBRANCH  10  11
BRANCH  10  22
ATOM     22  CB  PHE A   2      -5.542   1.817  -0.820  1.00  0.00     0.070 C 
BRANCH  22  23
ATOM     23  CG  PHE A   2      -6.842   2.143  -1.512  1.00  0.00    -0.045 A 
ATOM     24  CD1 PHE A   2      -7.664   3.178  -1.033  1.00  0.00     0.004 A 
ATOM     25  CD2 PHE A   2      -7.263   1.389  -2.621  1.00  0.00     0.004 A 
ATOM     26  CE1 PHE A   2      -8.885   3.454  -1.655  1.00  0.00     0.000 A 
ATOM     27  CE2 PHE A   2      -8.484   1.671  -3.242  1.00  0.00     0.000 A 
ATOM     28  CZ  PHE A   2      -9.295   2.702  -2.759  1.00  0.00     0.000 A 
ENDBRANCH  22  23
ENDBRANCH  10  22
ENDBRANCH   7  10
ENDBRANCH   5   6
BRANCH   5  29
ATOM     29  CB  LYS A   3      -2.176  -2.886   0.519  1.00  0.00     0.035 C 
BRANCH  29  30
ATOM     30  CG  LYS A   3      -3.240  -3.671   1.305  1.00  0.00     0.004 C 
BRANCH  30  31
ATOM     31  CD  LYS A   3      -2.994  -5.190   1.292  1.00  0.00     0.015 C 
BRANCH  31  32
ATOM     32  CE  LYS A   3      -3.045  -5.835  -0.107  1.00  0.00     0.077 C 
BRANCH  32  33
ATOM     33  NZ  LYS A   3      -4.326  -5.619  -0.782  1.00  0.00    -0.330 NA
ATOM     34  H   UNL     1      -4.387  -4.622  -1.092  1.00  0.00     0.118 HD
ATOM     35  H   UNL     1      -5.109  -5.802  -0.113  1.00  0.00     0.118 HD
ENDBRANCH  32  33
ENDBRANCH  31  32
ENDBRANCH  30  31
ENDBRANCH  29  30
ENDBRANCH   5  29
ENDBRANCH   1   5
BRANCH   3  36
ATOM     36  CA  VAL A   4       0.974   0.642   0.133  1.00  0.00     0.174 C 
BRANCH  36  37
ATOM     37  C   VAL A   4       2.312   0.119   0.603  1.00  0.00     0.243 C 
ATOM     38  N   ARG A   5       3.503   0.459  -0.123  1.00  0.00    -0.343 N 
ATOM     39  O   VAL A   4       2.387  -0.587   1.646  1.00  0.00    -0.273 OA
ATOM     40  H   UNL     1       3.395   0.976  -1.024  1.00  0.00     0.164 HD
BRANCH  38  41
ATOM     41  CA  ARG A   5       4.835  -0.006   0.289  1.00  0.00     0.171 C 
BRANCH  41  42
ATOM     42  C   ARG A   5       5.911   0.993  -0.060  1.00  0.00     0.243 C 
ATOM     43  N   ASN A   6       7.187   0.913   0.595  1.00  0.00    -0.341 N 
ATOM     44  O   ARG A   5       5.696   1.891  -0.921  1.00  0.00    -0.273 OA
ATOM     45  H   UNL     1       7.359   0.118   1.254  1.00  0.00     0.164 HD
BRANCH  43  46
ATOM     46  CA  ASN A   6       8.305   1.806   0.278  1.00  0.00     0.201 C 
BRANCH  46  47
ATOM     47  C   ASN A   6       9.256   1.109  -0.653  1.00  0.00     0.326 C 
ATOM     48  O   ASN A   6       9.715  -0.028  -0.359  1.00  0.00    -0.250 OA
BRANCH  47  49
ATOM     49  OXT ASN A   6       9.657   1.736  -1.829  1.00  0.00    -0.480 OA
ATOM     50  H   UNL     1      10.312   1.290  -2.460  1.00  0.00     0.296 HD
ENDBRANCH  47  49
ENDBRANCH  46  47
BRANCH  46  51
ATOM     51  CB  ASN A   6       9.007   2.232   1.578  1.00  0.00     0.136 C 
BRANCH  51  52
ATOM     52  CG  ASN A   6      10.047   3.283   1.328  1.00  0.00     0.220 C 
ATOM     53  ND2 ASN A   6       9.674   4.656   1.213  1.00  0.00    -0.370 N 
ATOM     54  OD1 ASN A   6      11.253   2.950   1.187  1.00  0.00    -0.275 OA
ATOM     55  H   UNL     1      10.397   5.386   1.030  1.00  0.00     0.159 HD
ATOM     56  H   UNL     1       8.680   4.950   1.330  1.00  0.00     0.159 HD
ENDBRANCH  51  52
ENDBRANCH  46  51
ENDBRANCH  43  46
ENDBRANCH  41  42
BRANCH  41  57
ATOM     57  CB  ARG A   5       5.132  -1.414  -0.274  1.00  0.00     0.037 C 
BRANCH  57  58
ATOM     58  CG  ARG A   5       5.002  -1.561  -1.807  1.00  0.00     0.024 C 
BRANCH  58  59
ATOM     59  CD  ARG A   5       6.268  -1.169  -2.586  1.00  0.00     0.116 C 
BRANCH  59  60
ATOM     60  NE  ARG A   5       7.383  -2.078  -2.308  1.00  0.00    -0.357 N 
ATOM     61  CZ  ARG A   5       8.673  -1.887  -2.903  1.00  0.00     0.185 C 
ATOM     62  NH2 ARG A   5       9.746  -2.769  -2.565  1.00  0.00    -0.370 N 
ATOM     63  H   UNL     1       7.249  -2.892  -1.666  1.00  0.00     0.163 HD
ATOM     64  H   UNL     1       9.589  -3.564  -1.908  1.00  0.00     0.159 HD
ATOM     65  H   UNL     1      10.696  -2.641  -2.982  1.00  0.00     0.159 HD
BRANCH  61  66
ATOM     66  NH1 ARG A   5       8.867  -0.922  -3.748  1.00  0.00    -0.270 NA
ATOM     67  H   UNL     1       9.798  -0.762  -4.194  1.00  0.00     0.191 HD
ENDBRANCH  61  66
ENDBRANCH  59  60
ENDBRANCH  58  59
ENDBRANCH  57  58
ENDBRANCH  41  57
ENDBRANCH  38  41
ENDBRANCH  36  37
BRANCH  36  68
ATOM     68  CB  VAL A   4       0.830   2.161   0.424  1.00  0.00     0.015 C 
ATOM     69  CG1 VAL A   4       0.854   2.486   1.926  1.00  0.00     0.010 C 
ATOM     70  CG2 VAL A   4      -0.441   2.732  -0.221  1.00  0.00     0.010 C 
ENDBRANCH  36  68
ENDBRANCH   3  36
TORSDOF 30
