REMARK SMILES CC(C)C[C@H](NC(=O)[C@H](Cc1ccccc1)NC(=O)[C@@H](N)CO)C(=O)N[C@@H](CCCCN)C(=O)N[C@@H](CO)C(=O)N[C@@H](CC(N)=O)C(=O)O
REMARK SMILES IDX 24 1 25 2 26 3 5 5 6 6 7 7 8 8 9 10 17 11 18 12 19 13 20 15
REMARK SMILES IDX 21 16 22 19 23 20 10 22 11 23 12 24 16 25 13 26 15 27 14 28
REMARK SMILES IDX 4 29 2 30 1 31 3 32 27 33 33 34 35 35 34 36 36 38 39 39
REMARK SMILES IDX 41 40 40 41 42 43 47 44 48 45 49 46 43 48 44 49 45 50 46 51
REMARK SMILES IDX 37 54 38 55 28 57 29 58 30 59 31 60 32 61
REMARK H PARENT 26 4 6 9 17 14 21 17 21 18 23 21 35 37 41 42 49 47 45 52 45 53
REMARK H PARENT 38 56 32 62 32 63
ROOT
ATOM      1  C   LEU A   3       0.817   0.099   1.185  1.00  0.00     0.243 C 
ATOM      2  O   LEU A   3       0.514  -0.939   0.533  1.00  0.00    -0.273 OA
ATOM      3  N   LYS A   4      -0.210   0.834   1.867  1.00  0.00    -0.343 N 
ATOM      4  H   UNL     1       0.078   1.635   2.474  1.00  0.00     0.164 HD
ENDROOT
BRANCH   1   5
ATOM      5  CA  LEU A   3       2.258   0.550   1.273  1.00  0.00     0.171 C 
BRANCH   5   6
ATOM      6  N   LEU A   3       3.164  -0.405   0.618  1.00  0.00    -0.343 N 
ATOM      7  C   PHE A   2       4.447  -0.749   1.165  1.00  0.00     0.243 C 
ATOM      8  O   PHE A   2       4.867  -0.180   2.208  1.00  0.00    -0.273 OA
ATOM      9  H   UNL     1       2.911  -0.802  -0.315  1.00  0.00     0.164 HD
BRANCH   7  10
ATOM     10  CA  PHE A   2       5.312  -1.786   0.496  1.00  0.00     0.175 C 
BRANCH  10  11
ATOM     11  N   PHE A   2       4.534  -3.012   0.297  1.00  0.00    -0.343 N 
ATOM     12  C   SER A   1       4.146  -3.849   1.402  1.00  0.00     0.239 C 
ATOM     13  O   SER A   1       4.540  -3.572   2.568  1.00  0.00    -0.273 OA
ATOM     14  H   UNL     1       4.282  -3.299  -0.672  1.00  0.00     0.164 HD
BRANCH  12  15
ATOM     15  CA  SER A   1       3.281  -5.073   1.197  1.00  0.00     0.167 C 
BRANCH  15  16
ATOM     16  N   SER A   1       2.044  -4.754   0.479  1.00  0.00    -0.318 NA
ATOM     17  H   UNL     1       1.518  -4.033   1.022  1.00  0.00     0.119 HD
ATOM     18  H   UNL     1       2.261  -4.346  -0.458  1.00  0.00     0.119 HD
ENDBRANCH  15  16
BRANCH  15  19
ATOM     19  CB  SER A   1       4.047  -6.209   0.501  1.00  0.00     0.184 C 
BRANCH  19  20
ATOM     20  OG  SER A   1       4.342  -5.887  -0.833  1.00  0.00    -0.394 OA
ATOM     21  H   UNL     1       5.261  -5.515  -0.846  1.00  0.00     0.210 HD
ENDBRANCH  19  20
ENDBRANCH  15  19
ENDBRANCH  12  15
ENDBRANCH  10  11
BRANCH  10  22
ATOM     22  CB  PHE A   2       5.859  -1.269  -0.850  1.00  0.00     0.070 C 
BRANCH  22  23
ATOM     23  CG  PHE A   2       6.740  -0.054  -0.680  1.00  0.00    -0.045 A 
ATOM     24  CD1 PHE A   2       8.047  -0.186  -0.180  1.00  0.00     0.004 A 
ATOM     25  CD2 PHE A   2       6.253   1.225  -0.997  1.00  0.00     0.004 A 
ATOM     26  CE1 PHE A   2       8.854   0.944  -0.010  1.00  0.00     0.000 A 
ATOM     27  CE2 PHE A   2       7.062   2.352  -0.825  1.00  0.00     0.000 A 
ATOM     28  CZ  PHE A   2       8.363   2.212  -0.337  1.00  0.00     0.000 A 
ENDBRANCH  22  23
ENDBRANCH  10  22
ENDBRANCH   7  10
ENDBRANCH   5   6
BRANCH   5  29
ATOM     29  CB  LEU A   3       2.500   1.984   0.731  1.00  0.00     0.038 C 
BRANCH  29  30
ATOM     30  CG  LEU A   3       1.681   2.416  -0.515  1.00  0.00    -0.015 C 
ATOM     31  CD1 LEU A   3       1.892   1.498  -1.727  1.00  0.00     0.007 C 
ATOM     32  CD2 LEU A   3       2.028   3.862  -0.893  1.00  0.00     0.007 C 
ENDBRANCH  29  30
ENDBRANCH   5  29
ENDBRANCH   1   5
BRANCH   3  33
ATOM     33  CA  LYS A   4      -1.622   0.439   1.791  1.00  0.00     0.171 C 
BRANCH  33  34
ATOM     34  C   LYS A   4      -2.142   0.604   0.384  1.00  0.00     0.243 C 
ATOM     35  N   SER A   5      -2.980  -0.404  -0.198  1.00  0.00    -0.340 N 
ATOM     36  O   LYS A   4      -1.842   1.636  -0.276  1.00  0.00    -0.273 OA
ATOM     37  H   UNL     1      -3.179  -1.266   0.361  1.00  0.00     0.164 HD
BRANCH  35  38
ATOM     38  CA  SER A   5      -3.359  -0.381  -1.613  1.00  0.00     0.197 C 
BRANCH  38  39
ATOM     39  C   SER A   5      -4.704  -1.033  -1.787  1.00  0.00     0.245 C 
ATOM     40  N   ASN A   6      -5.837  -0.249  -2.194  1.00  0.00    -0.340 N 
ATOM     41  O   SER A   5      -4.832  -2.269  -1.561  1.00  0.00    -0.273 OA
ATOM     42  H   UNL     1      -5.696   0.764  -2.409  1.00  0.00     0.164 HD
BRANCH  40  43
ATOM     43  CA  ASN A   6      -7.156  -0.832  -2.450  1.00  0.00     0.201 C 
BRANCH  43  44
ATOM     44  C   ASN A   6      -7.356  -0.963  -3.931  1.00  0.00     0.326 C 
ATOM     45  O   ASN A   6      -7.315   0.056  -4.670  1.00  0.00    -0.250 OA
BRANCH  44  46
ATOM     46  OXT ASN A   6      -7.593  -2.216  -4.491  1.00  0.00    -0.480 OA
ATOM     47  H   UNL     1      -7.741  -2.324  -5.486  1.00  0.00     0.296 HD
ENDBRANCH  44  46
ENDBRANCH  43  44
BRANCH  43  48
ATOM     48  CB  ASN A   6      -8.243   0.048  -1.810  1.00  0.00     0.136 C 
BRANCH  48  49
ATOM     49  CG  ASN A   6      -9.582  -0.633  -1.830  1.00  0.00     0.220 C 
ATOM     50  ND2 ASN A   6     -10.478  -0.445  -2.929  1.00  0.00    -0.370 N 
ATOM     51  OD1 ASN A   6      -9.912  -1.391  -0.880  1.00  0.00    -0.275 OA
ATOM     52  H   UNL     1     -10.217   0.163  -3.738  1.00  0.00     0.159 HD
ATOM     53  H   UNL     1     -11.403  -0.927  -2.939  1.00  0.00     0.159 HD
ENDBRANCH  48  49
ENDBRANCH  43  48
ENDBRANCH  40  43
ENDBRANCH  38  39
BRANCH  38  54
ATOM     54  CB  SER A   5      -2.282  -1.083  -2.454  1.00  0.00     0.191 C 
BRANCH  54  55
ATOM     55  OG  SER A   5      -2.550  -0.938  -3.825  1.00  0.00    -0.394 OA
ATOM     56  H   UNL     1      -3.213  -1.635  -4.065  1.00  0.00     0.210 HD
ENDBRANCH  54  55
ENDBRANCH  38  54
ENDBRANCH  35  38
ENDBRANCH  33  34
BRANCH  33  57
ATOM     57  CB  LYS A   4      -2.486   1.200   2.823  1.00  0.00     0.035 C 
BRANCH  57  58
ATOM     58  CG  LYS A   4      -2.620   2.711   2.539  1.00  0.00     0.004 C 
BRANCH  58  59
ATOM     59  CD  LYS A   4      -3.437   3.447   3.617  1.00  0.00     0.015 C 
BRANCH  59  60
ATOM     60  CE  LYS A   4      -2.684   3.641   4.943  1.00  0.00     0.077 C 
BRANCH  60  61
ATOM     61  NZ  LYS A   4      -1.468   4.426   4.748  1.00  0.00    -0.330 NA
ATOM     62  H   UNL     1      -1.744   5.385   4.429  1.00  0.00     0.118 HD
ATOM     63  H   UNL     1      -1.009   4.541   5.681  1.00  0.00     0.118 HD
ENDBRANCH  60  61
ENDBRANCH  59  60
ENDBRANCH  58  59
ENDBRANCH  57  58
ENDBRANCH  33  57
ENDBRANCH   3  33
TORSDOF 28
