REMARK SMILES CC(C)C[C@H](NC(=O)[C@H](CO)NC(=O)CNC(=O)[C@@H](N)CO)C(=O)N[C@@H](CCCNC(=N)N)C(=O)N[C@@H](CC(N)=O)C(=O)O
REMARK SMILES IDX 7 1 8 2 6 3 9 5 12 6 13 7 14 8 15 10 16 11 17 12 18 13 19 15
REMARK SMILES IDX 20 16 21 19 22 20 10 22 11 23 5 25 23 26 25 27 24 28 26 30
REMARK SMILES IDX 34 31 36 32 35 33 37 35 42 36 43 37 44 38 38 40 39 41 40 42
REMARK SMILES IDX 41 43 27 46 28 47 29 48 30 49 31 50 33 51 32 55 4 57 2 58
REMARK SMILES IDX 1 59 3 60
REMARK H PARENT 6 4 12 9 16 14 20 17 20 18 22 21 11 24 25 29 36 34 44 39 40 44
REMARK H PARENT 40 45 30 52 33 53 33 54 32 56
ROOT
ATOM      1  C   SER A   3      20.043  10.090  -6.457  1.00  0.00     0.245 C 
ATOM      2  O   SER A   3      20.185   9.189  -5.584  1.00  0.00    -0.273 OA
ATOM      3  N   LEU A   4      20.560   9.920  -7.768  1.00  0.00    -0.342 N 
ATOM      4  H   UNL     1      20.389  10.657  -8.490  1.00  0.00     0.164 HD
ENDROOT
BRANCH   1   5
ATOM      5  CA  SER A   3      19.314  11.348  -6.133  1.00  0.00     0.197 C 
BRANCH   5   6
ATOM      6  N   SER A   3      18.043  11.000  -5.528  1.00  0.00    -0.341 N 
ATOM      7  C   GLY A   2      16.868  11.762  -5.741  1.00  0.00     0.240 C 
ATOM      8  O   GLY A   2      16.897  12.807  -6.449  1.00  0.00    -0.273 OA
ATOM      9  H   UNL     1      18.024  10.266  -4.782  1.00  0.00     0.164 HD
BRANCH   7  10
ATOM     10  CA  GLY A   2      15.632  11.330  -5.027  1.00  0.00     0.216 C 
BRANCH  10  11
ATOM     11  N   GLY A   2      14.438  11.726  -5.743  1.00  0.00    -0.346 N 
ATOM     12  C   SER A   1      13.907  13.044  -5.632  1.00  0.00     0.239 C 
ATOM     13  O   SER A   1      14.447  13.870  -4.845  1.00  0.00    -0.273 OA
ATOM     14  H   UNL     1      13.852  10.960  -6.143  1.00  0.00     0.164 HD
BRANCH  12  15
ATOM     15  CA  SER A   1      12.651  13.406  -6.382  1.00  0.00     0.167 C 
BRANCH  15  16
ATOM     16  N   SER A   1      12.469  14.859  -6.387  1.00  0.00    -0.318 NA
ATOM     17  H   UNL     1      11.586  15.085  -6.900  1.00  0.00     0.119 HD
ATOM     18  H   UNL     1      12.303  15.175  -5.404  1.00  0.00     0.119 HD
ENDBRANCH  15  16
BRANCH  15  19
ATOM     19  CB  SER A   1      12.696  12.881  -7.836  1.00  0.00     0.184 C 
BRANCH  19  20
ATOM     20  OG  SER A   1      11.446  13.031  -8.451  1.00  0.00    -0.394 OA
ATOM     21  H   UNL     1      10.854  12.331  -8.070  1.00  0.00     0.210 HD
ENDBRANCH  19  20
ENDBRANCH  15  19
ENDBRANCH  12  15
ENDBRANCH  10  11
ENDBRANCH   7  10
ENDBRANCH   5   6
BRANCH   5  22
ATOM     22  CB  SER A   3      20.127  12.223  -5.181  1.00  0.00     0.191 C 
BRANCH  22  23
ATOM     23  OG  SER A   3      21.338  12.591  -5.784  1.00  0.00    -0.394 OA
ATOM     24  H   UNL     1      21.831  13.125  -5.108  1.00  0.00     0.210 HD
ENDBRANCH  22  23
ENDBRANCH   5  22
ENDBRANCH   1   5
BRANCH   3  25
ATOM     25  CA  LEU A   4      21.347   8.760  -8.137  1.00  0.00     0.171 C 
BRANCH  25  26
ATOM     26  C   LEU A   4      22.712   9.217  -8.519  1.00  0.00     0.243 C 
ATOM     27  N   ARG A   5      23.822   8.720  -7.785  1.00  0.00    -0.343 N 
ATOM     28  O   LEU A   4      22.875  10.033  -9.467  1.00  0.00    -0.273 OA
ATOM     29  H   UNL     1      23.667   8.030  -7.015  1.00  0.00     0.164 HD
BRANCH  27  30
ATOM     30  CA  ARG A   5      25.185   9.122  -8.073  1.00  0.00     0.171 C 
BRANCH  30  31
ATOM     31  C   ARG A   5      25.899   7.968  -8.686  1.00  0.00     0.243 C 
ATOM     32  N   ASN A   6      25.913   7.864 -10.102  1.00  0.00    -0.341 N 
ATOM     33  O   ARG A   5      26.447   7.087  -7.969  1.00  0.00    -0.273 OA
ATOM     34  H   UNL     1      25.489   8.647 -10.651  1.00  0.00     0.164 HD
BRANCH  32  35
ATOM     35  CA  ASN A   6      26.542   6.751 -10.804  1.00  0.00     0.201 C 
BRANCH  35  36
ATOM     36  C   ASN A   6      27.993   6.642 -10.416  1.00  0.00     0.326 C 
ATOM     37  O   ASN A   6      28.794   7.579 -10.677  1.00  0.00    -0.250 OA
BRANCH  36  38
ATOM     38  OXT ASN A   6      28.451   5.499  -9.768  1.00  0.00    -0.480 OA
ATOM     39  H   UNL     1      29.424   5.409  -9.499  1.00  0.00     0.296 HD
ENDBRANCH  36  38
ENDBRANCH  35  36
BRANCH  35  40
ATOM     40  CB  ASN A   6      26.424   6.946 -12.323  1.00  0.00     0.136 C 
BRANCH  40  41
ATOM     41  CG  ASN A   6      25.010   7.180 -12.773  1.00  0.00     0.220 C 
ATOM     42  ND2 ASN A   6      24.753   8.090 -13.833  1.00  0.00    -0.370 N 
ATOM     43  OD1 ASN A   6      24.053   6.558 -12.243  1.00  0.00    -0.275 OA
ATOM     44  H   UNL     1      25.533   8.600 -14.306  1.00  0.00     0.159 HD
ATOM     45  H   UNL     1      23.775   8.258 -14.156  1.00  0.00     0.159 HD
ENDBRANCH  40  41
ENDBRANCH  35  40
ENDBRANCH  32  35
ENDBRANCH  30  31
BRANCH  30  46
ATOM     46  CB  ARG A   5      25.863   9.605  -6.796  1.00  0.00     0.037 C 
BRANCH  46  47
ATOM     47  CG  ARG A   5      25.167  10.861  -6.272  1.00  0.00     0.024 C 
BRANCH  47  48
ATOM     48  CD  ARG A   5      25.841  11.392  -5.015  1.00  0.00     0.116 C 
BRANCH  48  49
ATOM     49  NE  ARG A   5      25.378  10.685  -3.823  1.00  0.00    -0.357 N 
ATOM     50  CZ  ARG A   5      25.468  11.279  -2.527  1.00  0.00     0.185 C 
ATOM     51  NH2 ARG A   5      26.106  12.541  -2.350  1.00  0.00    -0.370 N 
ATOM     52  H   UNL     1      24.904   9.758  -3.922  1.00  0.00     0.163 HD
ATOM     53  H   UNL     1      26.084  13.006  -1.415  1.00  0.00     0.159 HD
ATOM     54  H   UNL     1      26.693  12.983  -3.090  1.00  0.00     0.159 HD
BRANCH  50  55
ATOM     55  NH1 ARG A   5      24.959  10.678  -1.500  1.00  0.00    -0.270 NA
ATOM     56  H   UNL     1      24.478   9.755  -1.584  1.00  0.00     0.191 HD
ENDBRANCH  50  55
ENDBRANCH  48  49
ENDBRANCH  47  48
ENDBRANCH  46  47
ENDBRANCH  30  46
ENDBRANCH  27  30
ENDBRANCH  25  26
BRANCH  25  57
ATOM     57  CB  LEU A   4      20.654   7.999  -9.270  1.00  0.00     0.038 C 
BRANCH  57  58
ATOM     58  CG  LEU A   4      21.448   6.771  -9.768  1.00  0.00    -0.015 C 
ATOM     59  CD1 LEU A   4      21.762   5.778  -8.639  1.00  0.00     0.007 C 
ATOM     60  CD2 LEU A   4      20.662   6.068 -10.877  1.00  0.00     0.007 C 
ENDBRANCH  57  58
ENDBRANCH  25  57
ENDBRANCH   3  25
TORSDOF 26
