REMARK SMILES CC(C)C[C@H](NC(=O)[C@H](Cc1ccccc1)NC(=O)CN)C(=O)NCC(=O)N[C@@H](CCCNC(=N)N)C(=O)N[C@@H](CC(N)=O)C(=O)O
REMARK SMILES IDX 25 1 24 2 22 3 23 4 5 6 6 7 7 8 8 9 9 11 17 12 18 13 19 14
REMARK SMILES IDX 20 16 21 17 10 20 11 21 12 22 16 23 13 24 15 25 14 26 4 27
REMARK SMILES IDX 2 28 1 29 3 30 26 31 28 32 27 33 29 35 37 36 39 37 38 38
REMARK SMILES IDX 40 40 45 41 46 42 47 43 41 45 42 46 43 47 44 48 30 51 31 52
REMARK SMILES IDX 32 53 33 54 34 55 36 56 35 60
REMARK H PARENT 24 5 6 10 17 15 21 18 21 19 28 34 39 39 47 44 43 49 43 50
REMARK H PARENT 33 57 36 58 36 59 35 61
ROOT
ATOM      1  CA  GLY A   4       1.315   1.285   4.138  1.00  0.00     0.216 C 
ENDROOT
BRANCH   1   2
ATOM      2  N   GLY A   4       0.275   2.097   3.514  1.00  0.00    -0.345 N 
ATOM      3  C   LEU A   3      -1.026   1.576   3.215  1.00  0.00     0.243 C 
ATOM      4  O   LEU A   3      -1.395   0.472   3.700  1.00  0.00    -0.273 OA
ATOM      5  H   UNL     1       0.513   3.074   3.228  1.00  0.00     0.164 HD
BRANCH   3   6
ATOM      6  CA  LEU A   3      -1.966   2.376   2.354  1.00  0.00     0.171 C 
BRANCH   6   7
ATOM      7  N   LEU A   3      -2.858   1.474   1.618  1.00  0.00    -0.343 N 
ATOM      8  C   PHE A   2      -2.409   0.727   0.476  1.00  0.00     0.243 C 
ATOM      9  O   PHE A   2      -1.243   0.903   0.020  1.00  0.00    -0.273 OA
ATOM     10  H   UNL     1      -3.818   1.285   1.989  1.00  0.00     0.164 HD
BRANCH   8  11
ATOM     11  CA  PHE A   2      -3.302  -0.318  -0.138  1.00  0.00     0.175 C 
BRANCH  11  12
ATOM     12  N   PHE A   2      -3.134  -0.336  -1.595  1.00  0.00    -0.343 N 
ATOM     13  C   GLY A   1      -4.244  -0.283  -2.503  1.00  0.00     0.234 C 
ATOM     14  O   GLY A   1      -5.406  -0.035  -2.077  1.00  0.00    -0.274 OA
ATOM     15  H   UNL     1      -2.184  -0.534  -1.985  1.00  0.00     0.164 HD
BRANCH  13  16
ATOM     16  CA  GLY A   1      -4.041  -0.577  -3.957  1.00  0.00     0.178 C 
BRANCH  16  17
ATOM     17  N   GLY A   1      -4.141  -2.015  -4.191  1.00  0.00    -0.322 NA
ATOM     18  H   UNL     1      -3.943  -2.182  -5.205  1.00  0.00     0.119 HD
ATOM     19  H   UNL     1      -5.135  -2.308  -4.033  1.00  0.00     0.119 HD
ENDBRANCH  16  17
ENDBRANCH  13  16
ENDBRANCH  11  12
BRANCH  11  20
ATOM     20  CB  PHE A   2      -2.982  -1.699   0.453  1.00  0.00     0.070 C 
BRANCH  20  21
ATOM     21  CG  PHE A   2      -3.924  -2.749  -0.088  1.00  0.00    -0.045 A 
ATOM     22  CD1 PHE A   2      -5.210  -2.894   0.461  1.00  0.00     0.004 A 
ATOM     23  CD2 PHE A   2      -3.552  -3.542  -1.189  1.00  0.00     0.004 A 
ATOM     24  CE1 PHE A   2      -6.107  -3.822  -0.079  1.00  0.00     0.000 A 
ATOM     25  CE2 PHE A   2      -4.450  -4.472  -1.722  1.00  0.00     0.000 A 
ATOM     26  CZ  PHE A   2      -5.727  -4.608  -1.171  1.00  0.00     0.000 A 
ENDBRANCH  20  21
ENDBRANCH  11  20
ENDBRANCH   8  11
ENDBRANCH   6   7
BRANCH   6  27
ATOM     27  CB  LEU A   3      -2.772   3.353   3.234  1.00  0.00     0.038 C 
BRANCH  27  28
ATOM     28  CG  LEU A   3      -3.695   4.300   2.425  1.00  0.00    -0.015 C 
ATOM     29  CD1 LEU A   3      -4.665   5.024   3.368  1.00  0.00     0.007 C 
ATOM     30  CD2 LEU A   3      -2.890   5.332   1.621  1.00  0.00     0.007 C 
ENDBRANCH  27  28
ENDBRANCH   6  27
ENDBRANCH   3   6
ENDBRANCH   1   2
BRANCH   1  31
ATOM     31  C   GLY A   4       1.863   0.297   3.150  1.00  0.00     0.240 C 
ATOM     32  N   ARG A   5       2.357   0.750   1.881  1.00  0.00    -0.343 N 
ATOM     33  O   GLY A   4       1.926  -0.928   3.462  1.00  0.00    -0.273 OA
ATOM     34  H   UNL     1       2.214   1.753   1.627  1.00  0.00     0.164 HD
BRANCH  32  35
ATOM     35  CA  ARG A   5       2.849  -0.170   0.852  1.00  0.00     0.171 C 
BRANCH  35  36
ATOM     36  C   ARG A   5       3.975   0.490   0.096  1.00  0.00     0.243 C 
ATOM     37  N   ASN A   6       5.311  -0.032   0.182  1.00  0.00    -0.341 N 
ATOM     38  O   ARG A   5       3.740   1.514  -0.601  1.00  0.00    -0.273 OA
ATOM     39  H   UNL     1       5.490  -0.859   0.796  1.00  0.00     0.164 HD
BRANCH  37  40
ATOM     40  CA  ASN A   6       6.432   0.590  -0.535  1.00  0.00     0.201 C 
BRANCH  40  41
ATOM     41  C   ASN A   6       6.342   0.260  -1.999  1.00  0.00     0.326 C 
ATOM     42  O   ASN A   6       6.266  -0.943  -2.377  1.00  0.00    -0.250 OA
BRANCH  41  43
ATOM     43  OXT ASN A   6       6.323   1.284  -2.940  1.00  0.00    -0.480 OA
ATOM     44  H   UNL     1       6.260   1.082  -3.931  1.00  0.00     0.296 HD
ENDBRANCH  41  43
ENDBRANCH  40  41
BRANCH  40  45
ATOM     45  CB  ASN A   6       7.785   0.118   0.029  1.00  0.00     0.136 C 
BRANCH  45  46
ATOM     46  CG  ASN A   6       7.906   0.422   1.492  1.00  0.00     0.220 C 
ATOM     47  ND2 ASN A   6       8.026   1.776   1.941  1.00  0.00    -0.370 N 
ATOM     48  OD1 ASN A   6       7.834  -0.511   2.333  1.00  0.00    -0.275 OA
ATOM     49  H   UNL     1       8.089   1.985   2.961  1.00  0.00     0.159 HD
ATOM     50  H   UNL     1       8.093   2.557   1.250  1.00  0.00     0.159 HD
ENDBRANCH  45  46
ENDBRANCH  40  45
ENDBRANCH  37  40
ENDBRANCH  35  36
BRANCH  35  51
ATOM     51  CB  ARG A   5       1.692  -0.558  -0.088  1.00  0.00     0.037 C 
BRANCH  51  52
ATOM     52  CG  ARG A   5       2.100  -1.658  -1.078  1.00  0.00     0.024 C 
BRANCH  52  53
ATOM     53  CD  ARG A   5       0.958  -1.981  -2.050  1.00  0.00     0.116 C 
BRANCH  53  54
ATOM     54  NE  ARG A   5       1.380  -3.005  -3.005  1.00  0.00    -0.357 N 
ATOM     55  CZ  ARG A   5       2.320  -2.752  -4.060  1.00  0.00     0.185 C 
ATOM     56  NH2 ARG A   5       2.860  -3.846  -4.804  1.00  0.00    -0.370 N 
ATOM     57  H   UNL     1       0.983  -3.969  -2.909  1.00  0.00     0.163 HD
ATOM     58  H   UNL     1       3.555  -3.683  -5.567  1.00  0.00     0.159 HD
ATOM     59  H   UNL     1       2.605  -4.829  -4.559  1.00  0.00     0.159 HD
BRANCH  55  60
ATOM     60  NH1 ARG A   5       2.684  -1.541  -4.335  1.00  0.00    -0.270 NA
ATOM     61  H   UNL     1       3.367  -1.332  -5.096  1.00  0.00     0.191 HD
ENDBRANCH  55  60
ENDBRANCH  53  54
ENDBRANCH  52  53
ENDBRANCH  51  52
ENDBRANCH  35  51
ENDBRANCH  32  35
ENDBRANCH   1  31
TORSDOF 24
