REMARK SMILES CC(C)C[C@H](NC(=O)[C@H](C)NC(=O)[C@H](CC(N)=O)NC(=O)[C@@H](N)CO)C(=O)N[C@@H](CCCNC(=N)N)C(=O)N[C@@H](CC(N)=O)C(=O)O
REMARK SMILES IDX 7 1 8 2 6 3 9 5 10 6 11 7 12 8 13 9 14 11 19 12 20 13 21 14
REMARK SMILES IDX 22 16 23 17 24 20 25 21 15 23 16 24 17 25 18 26 5 29 26 30
REMARK SMILES IDX 28 31 27 32 29 34 37 35 39 36 38 37 40 39 45 40 46 41 47 42
REMARK SMILES IDX 41 44 42 45 43 46 44 47 30 50 31 51 32 52 33 53 34 54 36 55
REMARK SMILES IDX 35 59 4 61 2 62 1 63 3 64
REMARK H PARENT 6 4 11 10 19 15 23 18 23 19 25 22 17 27 17 28 28 33 39 38
REMARK H PARENT 47 43 43 48 43 49 33 56 36 57 36 58 35 60
ROOT
ATOM      1  C   ALA A   3      20.040  10.099  -6.459  1.00  0.00     0.242 C 
ATOM      2  O   ALA A   3      20.173   9.197  -5.585  1.00  0.00    -0.273 OA
ATOM      3  N   LEU A   4      20.559   9.923  -7.769  1.00  0.00    -0.343 N 
ATOM      4  H   UNL     1      20.390  10.659  -8.493  1.00  0.00     0.164 HD
ENDROOT
BRANCH   1   5
ATOM      5  CA  ALA A   3      19.328  11.369  -6.139  1.00  0.00     0.168 C 
ATOM      6  CB  ALA A   3      20.171  12.245  -5.221  1.00  0.00     0.041 C 
BRANCH   5   7
ATOM      7  N   ALA A   3      18.085  11.050  -5.479  1.00  0.00    -0.343 N 
ATOM      8  C   ASN A   2      16.875  11.746  -5.741  1.00  0.00     0.243 C 
ATOM      9  O   ASN A   2      16.884  12.784  -6.460  1.00  0.00    -0.273 OA
ATOM     10  H   UNL     1      18.176  10.531  -4.578  1.00  0.00     0.164 HD
BRANCH   8  11
ATOM     11  CA  ASN A   2      15.625  11.285  -5.041  1.00  0.00     0.180 C 
BRANCH  11  12
ATOM     12  N   ASN A   2      14.440  11.729  -5.762  1.00  0.00    -0.342 N 
ATOM     13  C   SER A   1      13.912  13.044  -5.635  1.00  0.00     0.239 C 
ATOM     14  O   SER A   1      14.452  13.862  -4.839  1.00  0.00    -0.273 OA
ATOM     15  H   UNL     1      13.856  11.000  -6.225  1.00  0.00     0.164 HD
BRANCH  13  16
ATOM     16  CA  SER A   1      12.654  13.411  -6.386  1.00  0.00     0.167 C 
BRANCH  16  17
ATOM     17  N   SER A   1      12.471  14.865  -6.380  1.00  0.00    -0.318 NA
ATOM     18  H   UNL     1      11.568  15.091  -6.855  1.00  0.00     0.119 HD
ATOM     19  H   UNL     1      12.339  15.178  -5.391  1.00  0.00     0.119 HD
ENDBRANCH  16  17
BRANCH  16  20
ATOM     20  CB  SER A   1      12.697  12.898  -7.844  1.00  0.00     0.184 C 
BRANCH  20  21
ATOM     21  OG  SER A   1      11.439  13.037  -8.447  1.00  0.00    -0.394 OA
ATOM     22  H   UNL     1      11.449  13.893  -8.950  1.00  0.00     0.210 HD
ENDBRANCH  20  21
ENDBRANCH  16  20
ENDBRANCH  13  16
ENDBRANCH  11  12
BRANCH  11  23
ATOM     23  CB  ASN A   2      15.590   9.742  -4.918  1.00  0.00     0.134 C 
BRANCH  23  24
ATOM     24  CG  ASN A   2      14.428   9.283  -4.094  1.00  0.00     0.220 C 
ATOM     25  ND2 ASN A   2      13.296   8.668  -4.711  1.00  0.00    -0.370 N 
ATOM     26  OD1 ASN A   2      14.439   9.455  -2.846  1.00  0.00    -0.275 OA
ATOM     27  H   UNL     1      13.263   8.519  -5.744  1.00  0.00     0.159 HD
ATOM     28  H   UNL     1      12.483   8.361  -4.131  1.00  0.00     0.159 HD
ENDBRANCH  23  24
ENDBRANCH  11  23
ENDBRANCH   8  11
ENDBRANCH   5   7
ENDBRANCH   1   5
BRANCH   3  29
ATOM     29  CA  LEU A   4      21.345   8.761  -8.135  1.00  0.00     0.171 C 
BRANCH  29  30
ATOM     30  C   LEU A   4      22.711   9.217  -8.518  1.00  0.00     0.243 C 
ATOM     31  N   ARG A   5      23.821   8.720  -7.785  1.00  0.00    -0.343 N 
ATOM     32  O   LEU A   4      22.875  10.032  -9.466  1.00  0.00    -0.273 OA
ATOM     33  H   UNL     1      23.666   8.029  -7.015  1.00  0.00     0.164 HD
BRANCH  31  34
ATOM     34  CA  ARG A   5      25.184   9.122  -8.073  1.00  0.00     0.171 C 
BRANCH  34  35
ATOM     35  C   ARG A   5      25.899   7.968  -8.685  1.00  0.00     0.243 C 
ATOM     36  N   ASN A   6      25.913   7.864 -10.102  1.00  0.00    -0.341 N 
ATOM     37  O   ARG A   5      26.447   7.087  -7.969  1.00  0.00    -0.273 OA
ATOM     38  H   UNL     1      25.489   8.647 -10.651  1.00  0.00     0.164 HD
BRANCH  36  39
ATOM     39  CA  ASN A   6      26.542   6.751 -10.804  1.00  0.00     0.201 C 
BRANCH  39  40
ATOM     40  C   ASN A   6      27.993   6.642 -10.416  1.00  0.00     0.326 C 
ATOM     41  O   ASN A   6      28.794   7.579 -10.677  1.00  0.00    -0.250 OA
BRANCH  40  42
ATOM     42  OXT ASN A   6      28.451   5.499  -9.768  1.00  0.00    -0.480 OA
ATOM     43  H   UNL     1      29.424   5.409  -9.499  1.00  0.00     0.296 HD
ENDBRANCH  40  42
ENDBRANCH  39  40
BRANCH  39  44
ATOM     44  CB  ASN A   6      26.424   6.947 -12.323  1.00  0.00     0.136 C 
BRANCH  44  45
ATOM     45  CG  ASN A   6      25.010   7.180 -12.773  1.00  0.00     0.220 C 
ATOM     46  ND2 ASN A   6      24.753   8.090 -13.833  1.00  0.00    -0.370 N 
ATOM     47  OD1 ASN A   6      24.053   6.558 -12.243  1.00  0.00    -0.275 OA
ATOM     48  H   UNL     1      23.774   8.258 -14.156  1.00  0.00     0.159 HD
ATOM     49  H   UNL     1      25.533   8.600 -14.306  1.00  0.00     0.159 HD
ENDBRANCH  44  45
ENDBRANCH  39  44
ENDBRANCH  36  39
ENDBRANCH  34  35
BRANCH  34  50
ATOM     50  CB  ARG A   5      25.862   9.605  -6.796  1.00  0.00     0.037 C 
BRANCH  50  51
ATOM     51  CG  ARG A   5      25.166  10.860  -6.270  1.00  0.00     0.024 C 
BRANCH  51  52
ATOM     52  CD  ARG A   5      25.842  11.390  -5.014  1.00  0.00     0.116 C 
BRANCH  52  53
ATOM     53  NE  ARG A   5      25.378  10.687  -3.820  1.00  0.00    -0.357 N 
ATOM     54  CZ  ARG A   5      25.470  11.282  -2.526  1.00  0.00     0.185 C 
ATOM     55  NH2 ARG A   5      26.109  12.546  -2.351  1.00  0.00    -0.370 N 
ATOM     56  H   UNL     1      24.899   9.761  -3.912  1.00  0.00     0.163 HD
ATOM     57  H   UNL     1      26.084  13.022  -1.422  1.00  0.00     0.159 HD
ATOM     58  H   UNL     1      26.699  12.981  -3.092  1.00  0.00     0.159 HD
BRANCH  54  59
ATOM     59  NH1 ARG A   5      24.956  10.671  -1.506  1.00  0.00    -0.270 NA
ATOM     60  H   UNL     1      24.999  11.075  -0.544  1.00  0.00     0.191 HD
ENDBRANCH  54  59
ENDBRANCH  52  53
ENDBRANCH  51  52
ENDBRANCH  50  51
ENDBRANCH  34  50
ENDBRANCH  31  34
ENDBRANCH  29  30
BRANCH  29  61
ATOM     61  CB  LEU A   4      20.653   7.999  -9.269  1.00  0.00     0.038 C 
BRANCH  61  62
ATOM     62  CG  LEU A   4      21.448   6.772  -9.767  1.00  0.00    -0.015 C 
ATOM     63  CD1 LEU A   4      21.762   5.779  -8.638  1.00  0.00     0.007 C 
ATOM     64  CD2 LEU A   4      20.662   6.068 -10.877  1.00  0.00     0.007 C 
ENDBRANCH  61  62
ENDBRANCH  29  61
ENDBRANCH   3  29
TORSDOF 26
