REMARK SMILES CC(C)[C@H](NC(=O)[C@H](Cc1ccccc1)NC(=O)[C@@H](N)CO)C(=O)NCC(=O)N[C@@H](CCCNC(=N)N)C(=O)N[C@@H](CC(N)=O)C(=O)O
REMARK SMILES IDX 23 1 24 2 25 3 4 5 5 6 6 7 7 8 8 10 16 11 17 12 18 13 19 15
REMARK SMILES IDX 20 16 21 19 22 20 9 22 10 23 11 24 15 25 12 26 14 27 13 28
REMARK SMILES IDX 2 29 1 30 3 31 26 32 27 33 29 34 28 35 30 37 38 38 40 39
REMARK SMILES IDX 39 40 41 42 46 43 47 44 48 45 42 47 43 48 44 49 45 50 31 53
REMARK SMILES IDX 32 54 33 55 34 56 35 57 37 58 36 62
REMARK H PARENT 25 4 5 9 16 14 20 17 20 18 22 21 29 36 40 41 48 46 44 51 44 52
REMARK H PARENT 34 59 37 60 37 61 36 63
ROOT
ATOM      1  C   VAL A   3      20.059  10.083  -6.470  1.00  0.00     0.243 C 
ATOM      2  O   VAL A   3      20.184   9.167  -5.611  1.00  0.00    -0.273 OA
ATOM      3  N   GLY A   4      20.557   9.912  -7.788  1.00  0.00    -0.345 N 
ATOM      4  H   UNL     1      20.391  10.658  -8.501  1.00  0.00     0.164 HD
ENDROOT
BRANCH   1   5
ATOM      5  CA  VAL A   3      19.349  11.359  -6.138  1.00  0.00     0.174 C 
BRANCH   5   6
ATOM      6  N   VAL A   3      18.088  11.028  -5.526  1.00  0.00    -0.342 N 
ATOM      7  C   PHE A   2      16.889  11.746  -5.775  1.00  0.00     0.243 C 
ATOM      8  O   PHE A   2      16.906  12.794  -6.478  1.00  0.00    -0.273 OA
ATOM      9  H   UNL     1      18.159  10.427  -4.681  1.00  0.00     0.164 HD
BRANCH   7  10
ATOM     10  CA  PHE A   2      15.653  11.313  -5.058  1.00  0.00     0.175 C 
BRANCH  10  11
ATOM     11  N   PHE A   2      14.456  11.740  -5.769  1.00  0.00    -0.343 N 
ATOM     12  C   SER A   1      13.915  13.049  -5.637  1.00  0.00     0.239 C 
ATOM     13  O   SER A   1      14.442  13.870  -4.836  1.00  0.00    -0.273 OA
ATOM     14  H   UNL     1      13.871  10.999  -6.213  1.00  0.00     0.164 HD
BRANCH  12  15
ATOM     15  CA  SER A   1      12.661  13.409  -6.393  1.00  0.00     0.167 C 
BRANCH  15  16
ATOM     16  N   SER A   1      12.471  14.861  -6.379  1.00  0.00    -0.318 NA
ATOM     17  H   UNL     1      11.538  15.086  -6.794  1.00  0.00     0.119 HD
ATOM     18  H   UNL     1      13.201  15.316  -6.976  1.00  0.00     0.119 HD
ENDBRANCH  15  16
BRANCH  15  19
ATOM     19  CB  SER A   1      12.691  12.879  -7.846  1.00  0.00     0.184 C 
BRANCH  19  20
ATOM     20  OG  SER A   1      11.437  13.052  -8.442  1.00  0.00    -0.394 OA
ATOM     21  H   UNL     1      11.538  12.777  -9.391  1.00  0.00     0.210 HD
ENDBRANCH  19  20
ENDBRANCH  15  19
ENDBRANCH  12  15
ENDBRANCH  10  11
BRANCH  10  22
ATOM     22  CB  PHE A   2      15.611   9.773  -4.884  1.00  0.00     0.070 C 
BRANCH  22  23
ATOM     23  CG  PHE A   2      14.438   9.291  -4.091  1.00  0.00    -0.045 A 
ATOM     24  CD1 PHE A   2      13.900  10.048  -3.033  1.00  0.00     0.004 A 
ATOM     25  CD2 PHE A   2      13.965   7.990  -4.310  1.00  0.00     0.004 A 
ATOM     26  CE1 PHE A   2      12.867   9.536  -2.259  1.00  0.00     0.000 A 
ATOM     27  CE2 PHE A   2      12.938   7.477  -3.520  1.00  0.00     0.000 A 
ATOM     28  CZ  PHE A   2      12.385   8.252  -2.501  1.00  0.00     0.000 A 
ENDBRANCH  22  23
ENDBRANCH  10  22
ENDBRANCH   7  10
ENDBRANCH   5   6
BRANCH   5  29
ATOM     29  CB  VAL A   3      20.158  12.283  -5.201  1.00  0.00     0.015 C 
ATOM     30  CG1 VAL A   3      20.447  11.680  -3.812  1.00  0.00     0.010 C 
ATOM     31  CG2 VAL A   3      21.462  12.745  -5.868  1.00  0.00     0.010 C 
ENDBRANCH   5  29
ENDBRANCH   1   5
BRANCH   3  32
ATOM     32  CA  GLY A   4      21.332   8.756  -8.192  1.00  0.00     0.216 C 
BRANCH  32  33
ATOM     33  C   GLY A   4      22.706   9.205  -8.534  1.00  0.00     0.240 C 
ATOM     34  N   ARG A   5      23.808   8.709  -7.787  1.00  0.00    -0.343 N 
ATOM     35  O   GLY A   4      22.881  10.030  -9.472  1.00  0.00    -0.273 OA
ATOM     36  H   UNL     1      23.643   7.993  -7.042  1.00  0.00     0.164 HD
BRANCH  34  37
ATOM     37  CA  ARG A   5      25.176   9.114  -8.069  1.00  0.00     0.171 C 
BRANCH  37  38
ATOM     38  C   ARG A   5      25.896   7.965  -8.685  1.00  0.00     0.243 C 
ATOM     39  N   ASN A   6      25.915   7.865 -10.102  1.00  0.00    -0.341 N 
ATOM     40  O   ARG A   5      26.447   7.085  -7.969  1.00  0.00    -0.273 OA
ATOM     41  H   UNL     1      25.496   8.651 -10.650  1.00  0.00     0.164 HD
BRANCH  39  42
ATOM     42  CA  ASN A   6      26.543   6.751 -10.804  1.00  0.00     0.201 C 
BRANCH  42  43
ATOM     43  C   ASN A   6      27.993   6.642 -10.416  1.00  0.00     0.326 C 
ATOM     44  O   ASN A   6      28.795   7.579 -10.677  1.00  0.00    -0.250 OA
BRANCH  43  45
ATOM     45  OXT ASN A   6      28.452   5.499  -9.770  1.00  0.00    -0.480 OA
ATOM     46  H   UNL     1      29.425   5.409  -9.501  1.00  0.00     0.296 HD
ENDBRANCH  43  45
ENDBRANCH  42  43
BRANCH  42  47
ATOM     47  CB  ASN A   6      26.424   6.946 -12.323  1.00  0.00     0.136 C 
BRANCH  47  48
ATOM     48  CG  ASN A   6      25.010   7.181 -12.772  1.00  0.00     0.220 C 
ATOM     49  ND2 ASN A   6      24.754   8.089 -13.834  1.00  0.00    -0.370 N 
ATOM     50  OD1 ASN A   6      24.051   6.563 -12.238  1.00  0.00    -0.275 OA
ATOM     51  H   UNL     1      23.775   8.258 -14.157  1.00  0.00     0.159 HD
ATOM     52  H   UNL     1      25.534   8.596 -14.309  1.00  0.00     0.159 HD
ENDBRANCH  47  48
ENDBRANCH  42  47
ENDBRANCH  39  42
ENDBRANCH  37  38
BRANCH  37  53
ATOM     53  CB  ARG A   5      25.857   9.598  -6.794  1.00  0.00     0.037 C 
BRANCH  53  54
ATOM     54  CG  ARG A   5      25.164  10.853  -6.269  1.00  0.00     0.024 C 
BRANCH  54  55
ATOM     55  CD  ARG A   5      25.840  11.388  -5.015  1.00  0.00     0.116 C 
BRANCH  55  56
ATOM     56  NE  ARG A   5      25.379  10.683  -3.822  1.00  0.00    -0.357 N 
ATOM     57  CZ  ARG A   5      25.468  11.279  -2.527  1.00  0.00     0.185 C 
ATOM     58  NH2 ARG A   5      26.106  12.542  -2.351  1.00  0.00    -0.370 N 
ATOM     59  H   UNL     1      24.906   9.755  -3.918  1.00  0.00     0.163 HD
ATOM     60  H   UNL     1      26.083  13.008  -1.416  1.00  0.00     0.159 HD
ATOM     61  H   UNL     1      26.690  12.984  -3.092  1.00  0.00     0.159 HD
BRANCH  57  62
ATOM     62  NH1 ARG A   5      24.958  10.680  -1.499  1.00  0.00    -0.270 NA
ATOM     63  H   UNL     1      24.478   9.756  -1.582  1.00  0.00     0.191 HD
ENDBRANCH  57  62
ENDBRANCH  55  56
ENDBRANCH  54  55
ENDBRANCH  53  54
ENDBRANCH  37  53
ENDBRANCH  34  37
ENDBRANCH  32  33
ENDBRANCH   3  32
TORSDOF 25
