REMARK SMILES CC(C)C[C@H](NC(=O)[C@H](CC(N)=O)NC(=O)[C@H](CC(C)C)NC(=O)[C@@H](N)CO)C(=O)N[C@@H](CCCNC(=N)N)C(=O)N[C@@H](CC(N)=O)C(=O)O
REMARK SMILES IDX 7 1 8 2 6 3 9 5 14 6 15 7 16 8 17 10 22 11 23 12 24 13 25 15
REMARK SMILES IDX 26 16 27 19 28 20 18 22 19 23 20 24 21 25 10 26 11 27 12 28
REMARK SMILES IDX 13 29 5 32 29 33 31 34 30 35 32 37 40 38 42 39 41 40 43 42
REMARK SMILES IDX 48 43 49 44 50 45 44 47 45 48 46 49 47 50 33 53 34 54 35 55
REMARK SMILES IDX 36 56 37 57 39 58 38 62 4 64 2 65 1 66 3 67
REMARK H PARENT 6 4 14 9 22 14 26 17 26 18 28 21 12 30 12 31 31 36 42 41 50 46
REMARK H PARENT 46 51 46 52 36 59 39 60 39 61 38 63
ROOT
ATOM      1  C   ASN A   3      20.047  10.092  -6.455  1.00  0.00     0.243 C 
ATOM      2  O   ASN A   3      20.170   9.179  -5.591  1.00  0.00    -0.273 OA
ATOM      3  N   LEU A   4      20.561   9.922  -7.767  1.00  0.00    -0.342 N 
ATOM      4  H   UNL     1      20.394  10.662  -8.488  1.00  0.00     0.164 HD
ENDROOT
BRANCH   1   5
ATOM      5  CA  ASN A   3      19.339  11.361  -6.121  1.00  0.00     0.180 C 
BRANCH   5   6
ATOM      6  N   ASN A   3      18.087  11.036  -5.482  1.00  0.00    -0.342 N 
ATOM      7  C   LEU A   2      16.887  11.747  -5.734  1.00  0.00     0.243 C 
ATOM      8  O   LEU A   2      16.905  12.787  -6.452  1.00  0.00    -0.273 OA
ATOM      9  H   UNL     1      18.165  10.480  -4.604  1.00  0.00     0.164 HD
BRANCH   7  10
ATOM     10  CA  LEU A   2      15.628  11.294  -5.049  1.00  0.00     0.171 C 
BRANCH  10  11
ATOM     11  N   LEU A   2      14.488  11.754  -5.813  1.00  0.00    -0.343 N 
ATOM     12  C   SER A   1      13.911  13.044  -5.641  1.00  0.00     0.239 C 
ATOM     13  O   SER A   1      14.429  13.853  -4.821  1.00  0.00    -0.273 OA
ATOM     14  H   UNL     1      14.178  11.121  -6.575  1.00  0.00     0.164 HD
BRANCH  12  15
ATOM     15  CA  SER A   1      12.646  13.406  -6.385  1.00  0.00     0.167 C 
BRANCH  15  16
ATOM     16  N   SER A   1      12.473  14.861  -6.396  1.00  0.00    -0.318 NA
ATOM     17  H   UNL     1      12.361  15.191  -5.409  1.00  0.00     0.119 HD
ATOM     18  H   UNL     1      11.563  15.089  -6.858  1.00  0.00     0.119 HD
ENDBRANCH  15  16
BRANCH  15  19
ATOM     19  CB  SER A   1      12.654  12.864  -7.836  1.00  0.00     0.184 C 
BRANCH  19  20
ATOM     20  OG  SER A   1      11.421  13.092  -8.456  1.00  0.00    -0.394 OA
ATOM     21  H   UNL     1      11.511  13.928  -8.983  1.00  0.00     0.210 HD
ENDBRANCH  19  20
ENDBRANCH  15  19
ENDBRANCH  12  15
ENDBRANCH  10  11
BRANCH  10  22
ATOM     22  CB  LEU A   2      15.559   9.747  -4.937  1.00  0.00     0.038 C 
BRANCH  22  23
ATOM     23  CG  LEU A   2      14.414   9.239  -4.035  1.00  0.00    -0.015 C 
ATOM     24  CD1 LEU A   2      13.023   9.384  -4.676  1.00  0.00     0.007 C 
ATOM     25  CD2 LEU A   2      14.647   7.764  -3.667  1.00  0.00     0.007 C 
ENDBRANCH  22  23
ENDBRANCH  10  22
ENDBRANCH   7  10
ENDBRANCH   5   6
BRANCH   5  26
ATOM     26  CB  ASN A   3      20.177  12.261  -5.202  1.00  0.00     0.134 C 
BRANCH  26  27
ATOM     27  CG  ASN A   3      20.424  11.675  -3.834  1.00  0.00     0.220 C 
ATOM     28  ND2 ASN A   3      19.511  11.922  -2.763  1.00  0.00    -0.370 N 
ATOM     29  OD1 ASN A   3      21.442  10.961  -3.632  1.00  0.00    -0.275 OA
ATOM     30  H   UNL     1      19.683  11.511  -1.819  1.00  0.00     0.159 HD
ATOM     31  H   UNL     1      18.660  12.509  -2.913  1.00  0.00     0.159 HD
ENDBRANCH  26  27
ENDBRANCH   5  26
ENDBRANCH   1   5
BRANCH   3  32
ATOM     32  CA  LEU A   4      21.346   8.761  -8.137  1.00  0.00     0.171 C 
BRANCH  32  33
ATOM     33  C   LEU A   4      22.712   9.217  -8.519  1.00  0.00     0.243 C 
ATOM     34  N   ARG A   5      23.822   8.720  -7.785  1.00  0.00    -0.343 N 
ATOM     35  O   LEU A   4      22.875  10.033  -9.467  1.00  0.00    -0.273 OA
ATOM     36  H   UNL     1      23.667   8.030  -7.015  1.00  0.00     0.164 HD
BRANCH  34  37
ATOM     37  CA  ARG A   5      25.185   9.122  -8.073  1.00  0.00     0.171 C 
BRANCH  37  38
ATOM     38  C   ARG A   5      25.899   7.968  -8.685  1.00  0.00     0.243 C 
ATOM     39  N   ASN A   6      25.913   7.864 -10.102  1.00  0.00    -0.341 N 
ATOM     40  O   ARG A   5      26.447   7.087  -7.969  1.00  0.00    -0.273 OA
ATOM     41  H   UNL     1      25.489   8.647 -10.651  1.00  0.00     0.164 HD
BRANCH  39  42
ATOM     42  CA  ASN A   6      26.542   6.751 -10.804  1.00  0.00     0.201 C 
BRANCH  42  43
ATOM     43  C   ASN A   6      27.993   6.642 -10.416  1.00  0.00     0.326 C 
ATOM     44  O   ASN A   6      28.794   7.579 -10.677  1.00  0.00    -0.250 OA
BRANCH  43  45
ATOM     45  OXT ASN A   6      28.451   5.499  -9.768  1.00  0.00    -0.480 OA
ATOM     46  H   UNL     1      29.424   5.409  -9.499  1.00  0.00     0.296 HD
ENDBRANCH  43  45
ENDBRANCH  42  43
BRANCH  42  47
ATOM     47  CB  ASN A   6      26.424   6.946 -12.323  1.00  0.00     0.136 C 
BRANCH  47  48
ATOM     48  CG  ASN A   6      25.010   7.180 -12.773  1.00  0.00     0.220 C 
ATOM     49  ND2 ASN A   6      24.753   8.090 -13.833  1.00  0.00    -0.370 N 
ATOM     50  OD1 ASN A   6      24.053   6.558 -12.243  1.00  0.00    -0.275 OA
ATOM     51  H   UNL     1      23.775   8.258 -14.156  1.00  0.00     0.159 HD
ATOM     52  H   UNL     1      25.533   8.600 -14.306  1.00  0.00     0.159 HD
ENDBRANCH  47  48
ENDBRANCH  42  47
ENDBRANCH  39  42
ENDBRANCH  37  38
BRANCH  37  53
ATOM     53  CB  ARG A   5      25.863   9.605  -6.796  1.00  0.00     0.037 C 
BRANCH  53  54
ATOM     54  CG  ARG A   5      25.167  10.861  -6.272  1.00  0.00     0.024 C 
BRANCH  54  55
ATOM     55  CD  ARG A   5      25.841  11.391  -5.015  1.00  0.00     0.116 C 
BRANCH  55  56
ATOM     56  NE  ARG A   5      25.377  10.685  -3.823  1.00  0.00    -0.357 N 
ATOM     57  CZ  ARG A   5      25.468  11.279  -2.527  1.00  0.00     0.185 C 
ATOM     58  NH2 ARG A   5      26.106  12.541  -2.349  1.00  0.00    -0.370 N 
ATOM     59  H   UNL     1      24.900   9.759  -3.922  1.00  0.00     0.163 HD
ATOM     60  H   UNL     1      26.084  13.006  -1.415  1.00  0.00     0.159 HD
ATOM     61  H   UNL     1      26.693  12.982  -3.090  1.00  0.00     0.159 HD
BRANCH  57  62
ATOM     62  NH1 ARG A   5      24.957  10.679  -1.500  1.00  0.00    -0.270 NA
ATOM     63  H   UNL     1      24.476   9.756  -1.584  1.00  0.00     0.191 HD
ENDBRANCH  57  62
ENDBRANCH  55  56
ENDBRANCH  54  55
ENDBRANCH  53  54
ENDBRANCH  37  53
ENDBRANCH  34  37
ENDBRANCH  32  33
BRANCH  32  64
ATOM     64  CB  LEU A   4      20.654   8.000  -9.270  1.00  0.00     0.038 C 
BRANCH  64  65
ATOM     65  CG  LEU A   4      21.448   6.772  -9.768  1.00  0.00    -0.015 C 
ATOM     66  CD1 LEU A   4      21.762   5.779  -8.639  1.00  0.00     0.007 C 
ATOM     67  CD2 LEU A   4      20.661   6.068 -10.877  1.00  0.00     0.007 C 
ENDBRANCH  64  65
ENDBRANCH  32  64
ENDBRANCH   3  32
TORSDOF 28
