REMARK SMILES CC[C@H](C)[C@H](NC(=O)[C@H](CC(N)=O)NC(=O)[C@H](Cc1ccccc1)NC(=O)[C@@H](N)CO)C(=O)N[C@@H](CCCNC(=N)N)C(=O)N[C@@H](CC(N)=O)C(=O)O
REMARK SMILES IDX 7 1 8 2 6 3 9 5 14 6 15 7 16 8 17 10 25 11 26 12 27 13 28 15
REMARK SMILES IDX 29 16 30 19 31 20 18 22 19 23 20 24 24 25 21 26 23 27 22 28
REMARK SMILES IDX 10 29 11 30 12 31 13 32 5 35 32 36 34 37 33 38 35 40 43 41
REMARK SMILES IDX 45 42 44 43 46 45 51 46 52 47 53 48 47 50 48 51 49 52 50 53
REMARK SMILES IDX 36 56 37 57 38 58 39 59 40 60 42 61 41 65 3 67 4 68 2 69
REMARK SMILES IDX 1 70
REMARK H PARENT 6 4 14 9 25 14 29 17 29 18 31 21 12 33 12 34 34 39 45 44 53 49
REMARK H PARENT 49 54 49 55 39 62 42 63 42 64 41 66
ROOT
ATOM      1  C   ASN A   3      20.050  10.096  -6.460  1.00  0.00     0.243 C 
ATOM      2  O   ASN A   3      20.167   9.178  -5.600  1.00  0.00    -0.273 OA
ATOM      3  N   ILE A   4      20.574   9.938  -7.768  1.00  0.00    -0.342 N 
ATOM      4  H   UNL     1      20.488  10.731  -8.444  1.00  0.00     0.164 HD
ENDROOT
BRANCH   1   5
ATOM      5  CA  ASN A   3      19.345  11.367  -6.128  1.00  0.00     0.180 C 
BRANCH   5   6
ATOM      6  N   ASN A   3      18.088  11.044  -5.506  1.00  0.00    -0.342 N 
ATOM      7  C   PHE A   2      16.886  11.749  -5.773  1.00  0.00     0.243 C 
ATOM      8  O   PHE A   2      16.902  12.793  -6.482  1.00  0.00    -0.273 OA
ATOM      9  H   UNL     1      18.164  10.483  -4.632  1.00  0.00     0.164 HD
BRANCH   7  10
ATOM     10  CA  PHE A   2      15.651  11.313  -5.059  1.00  0.00     0.175 C 
BRANCH  10  11
ATOM     11  N   PHE A   2      14.453  11.739  -5.769  1.00  0.00    -0.343 N 
ATOM     12  C   SER A   1      13.914  13.049  -5.637  1.00  0.00     0.239 C 
ATOM     13  O   SER A   1      14.447  13.869  -4.839  1.00  0.00    -0.273 OA
ATOM     14  H   UNL     1      13.862  10.999  -6.207  1.00  0.00     0.164 HD
BRANCH  12  15
ATOM     15  CA  SER A   1      12.655  13.409  -6.387  1.00  0.00     0.167 C 
BRANCH  15  16
ATOM     16  N   SER A   1      12.467  14.862  -6.384  1.00  0.00    -0.318 NA
ATOM     17  H   UNL     1      12.301  15.172  -5.399  1.00  0.00     0.119 HD
ATOM     18  H   UNL     1      11.582  15.088  -6.894  1.00  0.00     0.119 HD
ENDBRANCH  15  16
BRANCH  15  19
ATOM     19  CB  SER A   1      12.698  12.894  -7.844  1.00  0.00     0.184 C 
BRANCH  19  20
ATOM     20  OG  SER A   1      11.440  13.041  -8.440  1.00  0.00    -0.394 OA
ATOM     21  H   UNL     1      11.550  12.779  -9.392  1.00  0.00     0.210 HD
ENDBRANCH  19  20
ENDBRANCH  15  19
ENDBRANCH  12  15
ENDBRANCH  10  11
BRANCH  10  22
ATOM     22  CB  PHE A   2      15.612   9.773  -4.889  1.00  0.00     0.070 C 
BRANCH  22  23
ATOM     23  CG  PHE A   2      14.442   9.290  -4.090  1.00  0.00    -0.045 A 
ATOM     24  CD1 PHE A   2      13.902  10.047  -3.033  1.00  0.00     0.004 A 
ATOM     25  CD2 PHE A   2      13.967   7.990  -4.310  1.00  0.00     0.004 A 
ATOM     26  CE1 PHE A   2      12.868   9.535  -2.260  1.00  0.00     0.000 A 
ATOM     27  CE2 PHE A   2      12.939   7.477  -3.521  1.00  0.00     0.000 A 
ATOM     28  CZ  PHE A   2      12.386   8.252  -2.502  1.00  0.00     0.000 A 
ENDBRANCH  22  23
ENDBRANCH  10  22
ENDBRANCH   7  10
ENDBRANCH   5   6
BRANCH   5  29
ATOM     29  CB  ASN A   3      20.177  12.263  -5.200  1.00  0.00     0.134 C 
BRANCH  29  30
ATOM     30  CG  ASN A   3      20.420  11.672  -3.833  1.00  0.00     0.220 C 
ATOM     31  ND2 ASN A   3      19.499  11.907  -2.768  1.00  0.00    -0.370 N 
ATOM     32  OD1 ASN A   3      21.440  10.961  -3.630  1.00  0.00    -0.275 OA
ATOM     33  H   UNL     1      19.667  11.491  -1.825  1.00  0.00     0.159 HD
ATOM     34  H   UNL     1      18.646  12.489  -2.919  1.00  0.00     0.159 HD
ENDBRANCH  29  30
ENDBRANCH   5  29
ENDBRANCH   1   5
BRANCH   3  35
ATOM     35  CA  ILE A   4      21.342   8.772  -8.160  1.00  0.00     0.174 C 
BRANCH  35  36
ATOM     36  C   ILE A   4      22.716   9.217  -8.531  1.00  0.00     0.243 C 
ATOM     37  N   ARG A   5      23.820   8.719  -7.788  1.00  0.00    -0.343 N 
ATOM     38  O   ILE A   4      22.892  10.046  -9.465  1.00  0.00    -0.273 OA
ATOM     39  H   UNL     1      23.660   8.028  -7.020  1.00  0.00     0.164 HD
BRANCH  37  40
ATOM     40  CA  ARG A   5      25.185   9.119  -8.071  1.00  0.00     0.171 C 
BRANCH  40  41
ATOM     41  C   ARG A   5      25.900   7.966  -8.685  1.00  0.00     0.243 C 
ATOM     42  N   ASN A   6      25.913   7.864 -10.102  1.00  0.00    -0.341 N 
ATOM     43  O   ARG A   5      26.448   7.086  -7.969  1.00  0.00    -0.273 OA
ATOM     44  H   UNL     1      25.488   8.647 -10.650  1.00  0.00     0.164 HD
BRANCH  42  45
ATOM     45  CA  ASN A   6      26.542   6.751 -10.804  1.00  0.00     0.201 C 
BRANCH  45  46
ATOM     46  C   ASN A   6      27.993   6.642 -10.416  1.00  0.00     0.326 C 
ATOM     47  O   ASN A   6      28.794   7.579 -10.677  1.00  0.00    -0.250 OA
BRANCH  46  48
ATOM     48  OXT ASN A   6      28.451   5.499  -9.768  1.00  0.00    -0.480 OA
ATOM     49  H   UNL     1      29.424   5.409  -9.500  1.00  0.00     0.296 HD
ENDBRANCH  46  48
ENDBRANCH  45  46
BRANCH  45  50
ATOM     50  CB  ASN A   6      26.424   6.947 -12.323  1.00  0.00     0.136 C 
BRANCH  50  51
ATOM     51  CG  ASN A   6      25.010   7.181 -12.773  1.00  0.00     0.220 C 
ATOM     52  ND2 ASN A   6      24.753   8.091 -13.833  1.00  0.00    -0.370 N 
ATOM     53  OD1 ASN A   6      24.053   6.558 -12.243  1.00  0.00    -0.275 OA
ATOM     54  H   UNL     1      23.775   8.259 -14.156  1.00  0.00     0.159 HD
ATOM     55  H   UNL     1      25.533   8.600 -14.306  1.00  0.00     0.159 HD
ENDBRANCH  50  51
ENDBRANCH  45  50
ENDBRANCH  42  45
ENDBRANCH  40  41
BRANCH  40  56
ATOM     56  CB  ARG A   5      25.860   9.602  -6.793  1.00  0.00     0.037 C 
BRANCH  56  57
ATOM     57  CG  ARG A   5      25.165  10.858  -6.270  1.00  0.00     0.024 C 
BRANCH  57  58
ATOM     58  CD  ARG A   5      25.840  11.390  -5.014  1.00  0.00     0.116 C 
BRANCH  58  59
ATOM     59  NE  ARG A   5      25.376  10.687  -3.820  1.00  0.00    -0.357 N 
ATOM     60  CZ  ARG A   5      25.469  11.282  -2.526  1.00  0.00     0.185 C 
ATOM     61  NH2 ARG A   5      26.109  12.546  -2.351  1.00  0.00    -0.370 N 
ATOM     62  H   UNL     1      24.894   9.763  -3.912  1.00  0.00     0.163 HD
ATOM     63  H   UNL     1      26.084  13.022  -1.422  1.00  0.00     0.159 HD
ATOM     64  H   UNL     1      26.698  12.981  -3.093  1.00  0.00     0.159 HD
BRANCH  60  65
ATOM     65  NH1 ARG A   5      24.955  10.671  -1.506  1.00  0.00    -0.270 NA
ATOM     66  H   UNL     1      24.998  11.075  -0.544  1.00  0.00     0.191 HD
ENDBRANCH  60  65
ENDBRANCH  58  59
ENDBRANCH  57  58
ENDBRANCH  56  57
ENDBRANCH  40  56
ENDBRANCH  37  40
ENDBRANCH  35  36
BRANCH  35  67
ATOM     67  CB  ILE A   4      20.627   7.976  -9.280  1.00  0.00     0.018 C 
ATOM     68  CG1 ILE A   4      20.213   8.830 -10.494  1.00  0.00     0.010 C 
BRANCH  67  69
ATOM     69  CG2 ILE A   4      21.453   6.764  -9.761  1.00  0.00     0.002 C 
ATOM     70  CD1 ILE A   4      21.771   5.774  -8.641  1.00  0.00     0.004 C 
ENDBRANCH  67  69
ENDBRANCH  35  67
ENDBRANCH   3  35
TORSDOF 28
