REMARK SMILES CC(C)C[C@H](NC(=O)[C@H](CCC(N)=O)NC(=O)[C@H](Cc1ccccc1)NC(=O)[C@@H](N)CO)C(=O)N[C@@H](CCCNC(=N)N)C(=O)NCC(=O)O
REMARK SMILES IDX 7 1 8 2 6 3 9 5 15 6 16 7 17 8 18 10 26 11 27 12 28 13 29 15
REMARK SMILES IDX 30 16 31 19 32 20 19 22 20 23 21 24 25 25 22 26 24 27 23 28
REMARK SMILES IDX 10 29 11 30 12 31 13 32 14 33 5 36 33 37 35 38 34 39 36 41
REMARK SMILES IDX 44 42 46 43 45 44 47 46 48 47 49 48 50 49 37 51 38 52 39 53
REMARK SMILES IDX 40 54 41 55 43 56 42 60 4 62 2 63 1 64 3 65
REMARK H PARENT 6 4 15 9 26 14 30 17 30 18 32 21 13 34 13 35 35 40 46 45 50 50
REMARK H PARENT 40 57 43 58 43 59 42 61
ROOT
ATOM      1  C   GLN A   3      20.039  10.085  -6.470  1.00  0.00     0.243 C 
ATOM      2  O   GLN A   3      20.156   9.167  -5.611  1.00  0.00    -0.273 OA
ATOM      3  N   LEU A   4      20.564   9.920  -7.776  1.00  0.00    -0.343 N 
ATOM      4  H   UNL     1      20.402  10.661  -8.497  1.00  0.00     0.164 HD
ENDROOT
BRANCH   1   5
ATOM      5  CA  GLN A   3      19.337  11.359  -6.141  1.00  0.00     0.171 C 
BRANCH   5   6
ATOM      6  N   GLN A   3      18.086  11.050  -5.500  1.00  0.00    -0.342 N 
ATOM      7  C   PHE A   2      16.884  11.751  -5.773  1.00  0.00     0.243 C 
ATOM      8  O   PHE A   2      16.900  12.793  -6.484  1.00  0.00    -0.273 OA
ATOM      9  H   UNL     1      18.159  10.508  -4.614  1.00  0.00     0.164 HD
BRANCH   7  10
ATOM     10  CA  PHE A   2      15.650  11.314  -5.059  1.00  0.00     0.175 C 
BRANCH  10  11
ATOM     11  N   PHE A   2      14.453  11.740  -5.769  1.00  0.00    -0.343 N 
ATOM     12  C   SER A   1      13.913  13.050  -5.638  1.00  0.00     0.239 C 
ATOM     13  O   SER A   1      14.441  13.870  -4.837  1.00  0.00    -0.273 OA
ATOM     14  H   UNL     1      13.865  11.000  -6.209  1.00  0.00     0.164 HD
BRANCH  12  15
ATOM     15  CA  SER A   1      12.660  13.410  -6.393  1.00  0.00     0.167 C 
BRANCH  15  16
ATOM     16  N   SER A   1      12.471  14.862  -6.379  1.00  0.00    -0.318 NA
ATOM     17  H   UNL     1      13.201  15.317  -6.976  1.00  0.00     0.119 HD
ATOM     18  H   UNL     1      11.538  15.088  -6.795  1.00  0.00     0.119 HD
ENDBRANCH  15  16
BRANCH  15  19
ATOM     19  CB  SER A   1      12.691  12.880  -7.847  1.00  0.00     0.184 C 
BRANCH  19  20
ATOM     20  OG  SER A   1      11.436  13.052  -8.443  1.00  0.00    -0.394 OA
ATOM     21  H   UNL     1      11.538  12.777  -9.391  1.00  0.00     0.210 HD
ENDBRANCH  19  20
ENDBRANCH  15  19
ENDBRANCH  12  15
ENDBRANCH  10  11
BRANCH  10  22
ATOM     22  CB  PHE A   2      15.612   9.774  -4.891  1.00  0.00     0.070 C 
BRANCH  22  23
ATOM     23  CG  PHE A   2      14.443   9.289  -4.090  1.00  0.00    -0.045 A 
ATOM     24  CD1 PHE A   2      13.903  10.047  -3.033  1.00  0.00     0.004 A 
ATOM     25  CD2 PHE A   2      13.968   7.990  -4.310  1.00  0.00     0.004 A 
ATOM     26  CE1 PHE A   2      12.869   9.535  -2.260  1.00  0.00     0.000 A 
ATOM     27  CE2 PHE A   2      12.939   7.477  -3.521  1.00  0.00     0.000 A 
ATOM     28  CZ  PHE A   2      12.386   8.252  -2.502  1.00  0.00     0.000 A 
ENDBRANCH  22  23
ENDBRANCH  10  22
ENDBRANCH   7  10
ENDBRANCH   5   6
BRANCH   5  29
ATOM     29  CB  GLN A   3      20.190  12.255  -5.237  1.00  0.00     0.045 C 
BRANCH  29  30
ATOM     30  CG  GLN A   3      20.401  11.721  -3.804  1.00  0.00     0.102 C 
BRANCH  30  31
ATOM     31  CD  GLN A   3      21.775  12.051  -3.319  1.00  0.00     0.217 C 
ATOM     32  NE2 GLN A   3      22.158  13.402  -3.069  1.00  0.00    -0.370 N 
ATOM     33  OE1 GLN A   3      22.600  11.120  -3.138  1.00  0.00    -0.275 OA
ATOM     34  H   UNL     1      23.125  13.623  -2.740  1.00  0.00     0.159 HD
ATOM     35  H   UNL     1      21.480  14.183  -3.215  1.00  0.00     0.159 HD
ENDBRANCH  30  31
ENDBRANCH  29  30
ENDBRANCH   5  29
ENDBRANCH   1   5
BRANCH   3  36
ATOM     36  CA  LEU A   4      21.349   8.759  -8.142  1.00  0.00     0.171 C 
BRANCH  36  37
ATOM     37  C   LEU A   4      22.713   9.217  -8.524  1.00  0.00     0.243 C 
ATOM     38  N   ARG A   5      23.824   8.721  -7.792  1.00  0.00    -0.343 N 
ATOM     39  O   LEU A   4      22.875  10.035  -9.470  1.00  0.00    -0.273 OA
ATOM     40  H   UNL     1      23.671   8.031  -7.021  1.00  0.00     0.164 HD
BRANCH  38  41
ATOM     41  CA  ARG A   5      25.187   9.120  -8.087  1.00  0.00     0.171 C 
BRANCH  41  42
ATOM     42  C   ARG A   5      25.898   7.961  -8.698  1.00  0.00     0.243 C 
ATOM     43  N   GLY A   6      25.892   7.824 -10.117  1.00  0.00    -0.343 N 
ATOM     44  O   ARG A   5      26.454   7.092  -7.972  1.00  0.00    -0.273 OA
ATOM     45  H   UNL     1      25.398   8.537 -10.701  1.00  0.00     0.164 HD
BRANCH  43  46
ATOM     46  CA  GLY A   6      26.551   6.716 -10.794  1.00  0.00     0.238 C 
BRANCH  46  47
ATOM     47  C   GLY A   6      28.000   6.644 -10.414  1.00  0.00     0.322 C 
ATOM     48  O   GLY A   6      28.781   7.588 -10.704  1.00  0.00    -0.250 OA
BRANCH  47  49
ATOM     49  OXT GLY A   6      28.483   5.528  -9.737  1.00  0.00    -0.480 OA
ATOM     50  H   UNL     1      29.458   5.464  -9.471  1.00  0.00     0.296 HD
ENDBRANCH  47  49
ENDBRANCH  46  47
ENDBRANCH  43  46
ENDBRANCH  41  42
BRANCH  41  51
ATOM     51  CB  ARG A   5      25.866   9.607  -6.807  1.00  0.00     0.037 C 
BRANCH  51  52
ATOM     52  CG  ARG A   5      25.162  10.854  -6.270  1.00  0.00     0.024 C 
BRANCH  52  53
ATOM     53  CD  ARG A   5      25.843  11.391  -5.017  1.00  0.00     0.116 C 
BRANCH  53  54
ATOM     54  NE  ARG A   5      25.401  10.680  -3.819  1.00  0.00    -0.357 N 
ATOM     55  CZ  ARG A   5      25.488  11.278  -2.526  1.00  0.00     0.185 C 
ATOM     56  NH2 ARG A   5      26.110  12.551  -2.354  1.00  0.00    -0.370 N 
ATOM     57  H   UNL     1      24.950   9.740  -3.907  1.00  0.00     0.163 HD
ATOM     58  H   UNL     1      26.694  12.991  -3.097  1.00  0.00     0.159 HD
ATOM     59  H   UNL     1      26.073  13.033  -1.429  1.00  0.00     0.159 HD
BRANCH  55  60
ATOM     60  NH1 ARG A   5      24.977  10.667  -1.504  1.00  0.00    -0.270 NA
ATOM     61  H   UNL     1      25.012  11.076  -0.544  1.00  0.00     0.191 HD
ENDBRANCH  55  60
ENDBRANCH  53  54
ENDBRANCH  52  53
ENDBRANCH  51  52
ENDBRANCH  41  51
ENDBRANCH  38  41
ENDBRANCH  36  37
BRANCH  36  62
ATOM     62  CB  LEU A   4      20.657   7.998  -9.274  1.00  0.00     0.038 C 
BRANCH  62  63
ATOM     63  CG  LEU A   4      21.449   6.769  -9.771  1.00  0.00    -0.015 C 
ATOM     64  CD1 LEU A   4      21.763   5.778  -8.640  1.00  0.00     0.007 C 
ATOM     65  CD2 LEU A   4      20.659   6.065 -10.876  1.00  0.00     0.007 C 
ENDBRANCH  62  63
ENDBRANCH  36  62
ENDBRANCH   3  36
TORSDOF 27
