REMARK SMILES CC(C)C[C@H](NC(=O)[C@@H]1CCCN1C(=O)[C@H](C)NC(=O)[C@@H](N)CO)C(=O)N[C@@H](CCCNC(=N)N)C(=O)N[C@@H](CC(N)=O)C(=O)O
REMARK SMILES IDX 7 1 8 2 6 3 9 5 13 6 12 7 10 8 11 9 14 10 15 11 16 12 17 13
REMARK SMILES IDX 18 14 19 15 20 16 21 18 22 19 23 22 24 23 5 25 25 26 27 27
REMARK SMILES IDX 26 28 28 30 36 31 38 32 37 33 39 35 44 36 45 37 46 38 40 40
REMARK SMILES IDX 41 41 42 42 43 43 29 46 30 47 31 48 32 49 33 50 35 51 34 55
REMARK SMILES IDX 4 57 2 58 1 59 3 60
REMARK H PARENT 6 4 18 17 22 20 22 21 24 24 27 29 38 34 46 39 42 44 42 45
REMARK H PARENT 32 52 35 53 35 54 34 56
ROOT
ATOM      1  C   PRO A   3      20.001  10.085  -6.441  1.00  0.00     0.243 C 
ATOM      2  O   PRO A   3      20.161   9.186  -5.571  1.00  0.00    -0.273 OA
ATOM      3  N   LEU A   4      20.549   9.934  -7.747  1.00  0.00    -0.343 N 
ATOM      4  H   UNL     1      20.381  10.683  -8.458  1.00  0.00     0.164 HD
ENDROOT
BRANCH   1   5
ATOM      5  CA  PRO A   3      19.260  11.347  -6.105  1.00  0.00     0.174 C 
ATOM      6  N   PRO A   3      18.258  11.095  -5.075  1.00  0.00    -0.329 N 
ATOM      7  CD  PRO A   3      18.650  11.626  -3.779  1.00  0.00     0.120 C 
ATOM      8  CB  PRO A   3      20.210  12.374  -5.490  1.00  0.00     0.037 C 
ATOM      9  CG  PRO A   3      20.025  12.252  -3.980  1.00  0.00     0.024 C 
BRANCH   6  10
ATOM     10  C   ALA A   2      17.037  10.348  -5.251  1.00  0.00     0.245 C 
ATOM     11  O   ALA A   2      16.571   9.701  -4.275  1.00  0.00    -0.272 OA
BRANCH  10  12
ATOM     12  CA  ALA A   2      16.262  10.337  -6.551  1.00  0.00     0.168 C 
ATOM     13  CB  ALA A   2      16.807   9.282  -7.518  1.00  0.00     0.041 C 
BRANCH  12  14
ATOM     14  N   ALA A   2      16.242  11.664  -7.173  1.00  0.00    -0.343 N 
ATOM     15  C   SER A   1      15.629  12.799  -6.544  1.00  0.00     0.239 C 
ATOM     16  O   SER A   1      15.077  12.676  -5.416  1.00  0.00    -0.273 OA
ATOM     17  H   UNL     1      16.655  11.791  -8.126  1.00  0.00     0.164 HD
BRANCH  15  18
ATOM     18  CA  SER A   1      15.701  14.152  -7.205  1.00  0.00     0.167 C 
BRANCH  18  19
ATOM     19  N   SER A   1      14.565  14.988  -6.806  1.00  0.00    -0.318 NA
ATOM     20  H   UNL     1      14.587  15.870  -7.368  1.00  0.00     0.119 HD
ATOM     21  H   UNL     1      14.659  15.260  -5.801  1.00  0.00     0.119 HD
ENDBRANCH  18  19
BRANCH  18  22
ATOM     22  CB  SER A   1      17.046  14.841  -6.908  1.00  0.00     0.184 C 
BRANCH  22  23
ATOM     23  OG  SER A   1      17.201  15.095  -5.536  1.00  0.00    -0.394 OA
ATOM     24  H   UNL     1      17.550  14.261  -5.127  1.00  0.00     0.210 HD
ENDBRANCH  22  23
ENDBRANCH  18  22
ENDBRANCH  15  18
ENDBRANCH  12  14
ENDBRANCH  10  12
ENDBRANCH   6  10
ENDBRANCH   1   5
BRANCH   3  25
ATOM     25  CA  LEU A   4      21.338   8.772  -8.126  1.00  0.00     0.171 C 
BRANCH  25  26
ATOM     26  C   LEU A   4      22.706   9.224  -8.512  1.00  0.00     0.243 C 
ATOM     27  N   ARG A   5      23.818   8.721  -7.784  1.00  0.00    -0.343 N 
ATOM     28  O   LEU A   4      22.870  10.036  -9.464  1.00  0.00    -0.273 OA
ATOM     29  H   UNL     1      23.663   8.031  -7.015  1.00  0.00     0.164 HD
BRANCH  27  30
ATOM     30  CA  ARG A   5      25.182   9.122  -8.073  1.00  0.00     0.171 C 
BRANCH  30  31
ATOM     31  C   ARG A   5      25.897   7.968  -8.685  1.00  0.00     0.243 C 
ATOM     32  N   ASN A   6      25.912   7.865 -10.102  1.00  0.00    -0.341 N 
ATOM     33  O   ARG A   5      26.446   7.087  -7.969  1.00  0.00    -0.273 OA
ATOM     34  H   UNL     1      25.489   8.648 -10.651  1.00  0.00     0.164 HD
BRANCH  32  35
ATOM     35  CA  ASN A   6      26.542   6.751 -10.804  1.00  0.00     0.201 C 
BRANCH  35  36
ATOM     36  C   ASN A   6      27.992   6.642 -10.415  1.00  0.00     0.326 C 
ATOM     37  O   ASN A   6      28.794   7.579 -10.677  1.00  0.00    -0.250 OA
BRANCH  36  38
ATOM     38  OXT ASN A   6      28.451   5.499  -9.767  1.00  0.00    -0.480 OA
ATOM     39  H   UNL     1      29.423   5.410  -9.498  1.00  0.00     0.296 HD
ENDBRANCH  36  38
ENDBRANCH  35  36
BRANCH  35  40
ATOM     40  CB  ASN A   6      26.424   6.946 -12.323  1.00  0.00     0.136 C 
BRANCH  40  41
ATOM     41  CG  ASN A   6      25.010   7.180 -12.773  1.00  0.00     0.220 C 
ATOM     42  ND2 ASN A   6      24.753   8.090 -13.833  1.00  0.00    -0.370 N 
ATOM     43  OD1 ASN A   6      24.053   6.558 -12.243  1.00  0.00    -0.275 OA
ATOM     44  H   UNL     1      23.774   8.258 -14.156  1.00  0.00     0.159 HD
ATOM     45  H   UNL     1      25.533   8.600 -14.306  1.00  0.00     0.159 HD
ENDBRANCH  40  41
ENDBRANCH  35  40
ENDBRANCH  32  35
ENDBRANCH  30  31
BRANCH  30  46
ATOM     46  CB  ARG A   5      25.861   9.605  -6.796  1.00  0.00     0.037 C 
BRANCH  46  47
ATOM     47  CG  ARG A   5      25.165  10.860  -6.270  1.00  0.00     0.024 C 
BRANCH  47  48
ATOM     48  CD  ARG A   5      25.841  11.390  -5.014  1.00  0.00     0.116 C 
BRANCH  48  49
ATOM     49  NE  ARG A   5      25.378  10.687  -3.820  1.00  0.00    -0.357 N 
ATOM     50  CZ  ARG A   5      25.469  11.282  -2.526  1.00  0.00     0.185 C 
ATOM     51  NH2 ARG A   5      26.109  12.546  -2.351  1.00  0.00    -0.370 N 
ATOM     52  H   UNL     1      24.898   9.762  -3.912  1.00  0.00     0.163 HD
ATOM     53  H   UNL     1      26.083  13.022  -1.422  1.00  0.00     0.159 HD
ATOM     54  H   UNL     1      26.699  12.981  -3.092  1.00  0.00     0.159 HD
BRANCH  50  55
ATOM     55  NH1 ARG A   5      24.956  10.671  -1.507  1.00  0.00    -0.270 NA
ATOM     56  H   UNL     1      24.998  11.075  -0.544  1.00  0.00     0.191 HD
ENDBRANCH  50  55
ENDBRANCH  48  49
ENDBRANCH  47  48
ENDBRANCH  46  47
ENDBRANCH  30  46
ENDBRANCH  27  30
ENDBRANCH  25  26
BRANCH  25  57
ATOM     57  CB  LEU A   4      20.647   8.007  -9.260  1.00  0.00     0.038 C 
BRANCH  57  58
ATOM     58  CG  LEU A   4      21.444   6.780  -9.762  1.00  0.00    -0.015 C 
ATOM     59  CD1 LEU A   4      21.761   5.784  -8.636  1.00  0.00     0.007 C 
ATOM     60  CD2 LEU A   4      20.660   6.075 -10.874  1.00  0.00     0.007 C 
ENDBRANCH  57  58
ENDBRANCH  25  57
ENDBRANCH   3  25
TORSDOF 24
