REMARK SMILES CC(C)C[C@H](NC(=O)CNC(=O)[C@@H](N)CO)C(=O)N[C@H](C(=O)N[C@@H](CCCNC(=N)N)C(=O)N[C@@H](CC(N)=O)C(=O)O)[C@@H](C)O
REMARK SMILES IDX 17 1 18 2 19 3 5 5 6 6 7 7 8 8 9 10 10 11 11 12 12 13 13 15
REMARK SMILES IDX 14 16 15 19 16 20 4 22 2 23 1 24 3 25 20 26 21 27 23 28
REMARK SMILES IDX 22 29 24 31 32 32 34 33 33 34 35 36 40 37 41 38 42 39 36 41
REMARK SMILES IDX 37 42 38 43 39 44 25 47 26 48 27 49 28 50 29 51 31 52 30 56
REMARK SMILES IDX 43 58 44 59 45 60
REMARK H PARENT 19 4 6 9 10 14 14 17 14 18 16 21 23 30 34 35 42 40 38 45 38 46
REMARK H PARENT 28 53 31 54 31 55 30 57 45 61
ROOT
ATOM      1  C   LEU A   3      20.059  10.069  -6.433  1.00  0.00     0.243 C 
ATOM      2  O   LEU A   3      20.206   9.169  -5.564  1.00  0.00    -0.273 OA
ATOM      3  N   THR A   4      20.568   9.903  -7.751  1.00  0.00    -0.340 N 
ATOM      4  H   UNL     1      20.401  10.646  -8.468  1.00  0.00     0.164 HD
ENDROOT
BRANCH   1   5
ATOM      5  CA  LEU A   3      19.308  11.310  -6.116  1.00  0.00     0.171 C 
BRANCH   5   6
ATOM      6  N   LEU A   3      18.039  10.984  -5.500  1.00  0.00    -0.343 N 
ATOM      7  C   GLY A   2      16.869  11.755  -5.725  1.00  0.00     0.240 C 
ATOM      8  O   GLY A   2      16.907  12.799  -6.436  1.00  0.00    -0.273 OA
ATOM      9  H   UNL     1      17.980  10.165  -4.852  1.00  0.00     0.164 HD
BRANCH   7  10
ATOM     10  CA  GLY A   2      15.627  11.328  -5.020  1.00  0.00     0.216 C 
BRANCH  10  11
ATOM     11  N   GLY A   2      14.439  11.727  -5.745  1.00  0.00    -0.346 N 
ATOM     12  C   SER A   1      13.908  13.044  -5.633  1.00  0.00     0.239 C 
ATOM     13  O   SER A   1      14.447  13.870  -4.845  1.00  0.00    -0.273 OA
ATOM     14  H   UNL     1      13.855  10.961  -6.148  1.00  0.00     0.164 HD
BRANCH  12  15
ATOM     15  CA  SER A   1      12.652  13.406  -6.382  1.00  0.00     0.167 C 
BRANCH  15  16
ATOM     16  N   SER A   1      12.469  14.859  -6.387  1.00  0.00    -0.318 NA
ATOM     17  H   UNL     1      12.302  15.175  -5.403  1.00  0.00     0.119 HD
ATOM     18  H   UNL     1      11.585  15.085  -6.900  1.00  0.00     0.119 HD
ENDBRANCH  15  16
BRANCH  15  19
ATOM     19  CB  SER A   1      12.696  12.882  -7.836  1.00  0.00     0.184 C 
BRANCH  19  20
ATOM     20  OG  SER A   1      11.445  13.032  -8.451  1.00  0.00    -0.394 OA
ATOM     21  H   UNL     1      10.854  12.331  -8.070  1.00  0.00     0.210 HD
ENDBRANCH  19  20
ENDBRANCH  15  19
ENDBRANCH  12  15
ENDBRANCH  10  11
ENDBRANCH   7  10
ENDBRANCH   5   6
BRANCH   5  22
ATOM     22  CB  LEU A   3      20.126  12.330  -5.309  1.00  0.00     0.038 C 
BRANCH  22  23
ATOM     23  CG  LEU A   3      20.417  12.199  -3.790  1.00  0.00    -0.015 C 
ATOM     24  CD1 LEU A   3      21.811  11.747  -3.394  1.00  0.00     0.007 C 
ATOM     25  CD2 LEU A   3      19.284  11.861  -2.838  1.00  0.00     0.007 C 
ENDBRANCH  22  23
ENDBRANCH   5  22
ENDBRANCH   1   5
BRANCH   3  26
ATOM     26  CA  THR A   4      21.345   8.742  -8.143  1.00  0.00     0.200 C 
BRANCH  26  27
ATOM     27  C   THR A   4      22.711   9.207  -8.519  1.00  0.00     0.245 C 
ATOM     28  N   ARG A   5      23.821   8.708  -7.788  1.00  0.00    -0.342 N 
ATOM     29  O   THR A   4      22.874  10.032  -9.459  1.00  0.00    -0.273 OA
ATOM     30  H   UNL     1      23.668   7.981  -7.051  1.00  0.00     0.164 HD
BRANCH  28  31
ATOM     31  CA  ARG A   5      25.183   9.118  -8.072  1.00  0.00     0.171 C 
BRANCH  31  32
ATOM     32  C   ARG A   5      25.902   7.968  -8.686  1.00  0.00     0.243 C 
ATOM     33  N   ASN A   6      25.915   7.865 -10.103  1.00  0.00    -0.341 N 
ATOM     34  O   ARG A   5      26.450   7.087  -7.970  1.00  0.00    -0.273 OA
ATOM     35  H   UNL     1      25.491   8.649 -10.651  1.00  0.00     0.164 HD
BRANCH  33  36
ATOM     36  CA  ASN A   6      26.543   6.751 -10.804  1.00  0.00     0.201 C 
BRANCH  36  37
ATOM     37  C   ASN A   6      27.993   6.642 -10.416  1.00  0.00     0.326 C 
ATOM     38  O   ASN A   6      28.795   7.579 -10.677  1.00  0.00    -0.250 OA
BRANCH  37  39
ATOM     39  OXT ASN A   6      28.452   5.498  -9.771  1.00  0.00    -0.480 OA
ATOM     40  H   UNL     1      29.425   5.408  -9.502  1.00  0.00     0.296 HD
ENDBRANCH  37  39
ENDBRANCH  36  37
BRANCH  36  41
ATOM     41  CB  ASN A   6      26.425   6.947 -12.324  1.00  0.00     0.136 C 
BRANCH  41  42
ATOM     42  CG  ASN A   6      25.010   7.181 -12.773  1.00  0.00     0.220 C 
ATOM     43  ND2 ASN A   6      24.754   8.091 -13.834  1.00  0.00    -0.370 N 
ATOM     44  OD1 ASN A   6      24.053   6.559 -12.243  1.00  0.00    -0.275 OA
ATOM     45  H   UNL     1      25.533   8.600 -14.307  1.00  0.00     0.159 HD
ATOM     46  H   UNL     1      23.775   8.258 -14.157  1.00  0.00     0.159 HD
ENDBRANCH  41  42
ENDBRANCH  36  41
ENDBRANCH  33  36
ENDBRANCH  31  32
BRANCH  31  47
ATOM     47  CB  ARG A   5      25.858   9.601  -6.793  1.00  0.00     0.037 C 
BRANCH  47  48
ATOM     48  CG  ARG A   5      25.162  10.858  -6.270  1.00  0.00     0.024 C 
BRANCH  48  49
ATOM     49  CD  ARG A   5      25.838  11.390  -5.014  1.00  0.00     0.116 C 
BRANCH  49  50
ATOM     50  NE  ARG A   5      25.375  10.687  -3.820  1.00  0.00    -0.357 N 
ATOM     51  CZ  ARG A   5      25.468  11.282  -2.526  1.00  0.00     0.185 C 
ATOM     52  NH2 ARG A   5      26.108  12.546  -2.352  1.00  0.00    -0.370 N 
ATOM     53  H   UNL     1      24.890   9.765  -3.912  1.00  0.00     0.163 HD
ATOM     54  H   UNL     1      26.696  12.982  -3.094  1.00  0.00     0.159 HD
ATOM     55  H   UNL     1      26.081  13.023  -1.423  1.00  0.00     0.159 HD
BRANCH  51  56
ATOM     56  NH1 ARG A   5      24.954  10.672  -1.506  1.00  0.00    -0.270 NA
ATOM     57  H   UNL     1      24.996  11.076  -0.544  1.00  0.00     0.191 HD
ENDBRANCH  51  56
ENDBRANCH  49  50
ENDBRANCH  48  49
ENDBRANCH  47  48
ENDBRANCH  31  47
ENDBRANCH  28  31
ENDBRANCH  26  27
BRANCH  26  58
ATOM     58  CB  THR A   4      20.651   8.007  -9.302  1.00  0.00     0.143 C 
ATOM     59  CG2 THR A   4      21.435   6.767  -9.754  1.00  0.00     0.041 C 
BRANCH  58  60
ATOM     60  OG1 THR A   4      19.339   7.646  -8.946  1.00  0.00    -0.391 OA
ATOM     61  H   UNL     1      19.398   7.025  -8.173  1.00  0.00     0.211 HD
ENDBRANCH  58  60
ENDBRANCH  26  58
ENDBRANCH   3  26
TORSDOF 26
