REMARK SMILES CC(C)C[C@H](NC(=O)[C@H](CC(N)=O)NC(=O)[C@H](C)NC(=O)[C@@H](N)CO)C(=O)N[C@@H](CCCNC(=N)N)C(=O)N[C@@H](CC(N)=O)C(=O)O
REMARK SMILES IDX 7 1 8 2 6 3 9 5 14 6 15 7 16 8 17 10 18 11 19 12 20 13 21 14
REMARK SMILES IDX 22 16 23 17 24 20 25 21 10 23 11 24 12 25 13 26 5 29 26 30
REMARK SMILES IDX 28 31 27 32 29 34 37 35 39 36 38 37 40 39 45 40 46 41 47 42
REMARK SMILES IDX 41 44 42 45 43 46 44 47 30 50 31 51 32 52 33 53 34 54 36 55
REMARK SMILES IDX 35 59 4 61 2 62 1 63 3 64
REMARK H PARENT 6 4 14 9 19 15 23 18 23 19 25 22 12 27 12 28 28 33 39 38 47 43
REMARK H PARENT 43 48 43 49 33 56 36 57 36 58 35 60
ROOT
ATOM      1  C   ASN A   3      20.048  10.091  -6.455  1.00  0.00     0.243 C 
ATOM      2  O   ASN A   3      20.176   9.179  -5.592  1.00  0.00    -0.273 OA
ATOM      3  N   LEU A   4      20.562   9.923  -7.768  1.00  0.00    -0.342 N 
ATOM      4  H   UNL     1      20.393  10.662  -8.488  1.00  0.00     0.164 HD
ENDROOT
BRANCH   1   5
ATOM      5  CA  ASN A   3      19.328  11.353  -6.121  1.00  0.00     0.180 C 
BRANCH   5   6
ATOM      6  N   ASN A   3      18.066  11.015  -5.504  1.00  0.00    -0.342 N 
ATOM      7  C   ALA A   2      16.871  11.746  -5.737  1.00  0.00     0.242 C 
ATOM      8  O   ALA A   2      16.893  12.791  -6.446  1.00  0.00    -0.273 OA
ATOM      9  H   UNL     1      18.100  10.348  -4.702  1.00  0.00     0.164 HD
BRANCH   7  10
ATOM     10  CA  ALA A   2      15.617  11.294  -5.040  1.00  0.00     0.168 C 
ATOM     11  CB  ALA A   2      15.566   9.762  -4.904  1.00  0.00     0.041 C 
BRANCH  10  12
ATOM     12  N   ALA A   2      14.439  11.732  -5.767  1.00  0.00    -0.343 N 
ATOM     13  C   SER A   1      13.913  13.047  -5.636  1.00  0.00     0.239 C 
ATOM     14  O   SER A   1      14.449  13.863  -4.835  1.00  0.00    -0.273 OA
ATOM     15  H   UNL     1      13.850  11.001  -6.222  1.00  0.00     0.164 HD
BRANCH  13  16
ATOM     16  CA  SER A   1      12.659  13.414  -6.389  1.00  0.00     0.167 C 
BRANCH  16  17
ATOM     17  N   SER A   1      12.455  14.863  -6.398  1.00  0.00    -0.318 NA
ATOM     18  H   UNL     1      12.286  15.191  -5.419  1.00  0.00     0.119 HD
ATOM     19  H   UNL     1      13.317  15.339  -6.753  1.00  0.00     0.119 HD
ENDBRANCH  16  17
BRANCH  16  20
ATOM     20  CB  SER A   1      12.689  12.893  -7.844  1.00  0.00     0.184 C 
BRANCH  20  21
ATOM     21  OG  SER A   1      11.435  13.054  -8.447  1.00  0.00    -0.394 OA
ATOM     22  H   UNL     1      10.842  12.356  -8.065  1.00  0.00     0.210 HD
ENDBRANCH  20  21
ENDBRANCH  16  20
ENDBRANCH  13  16
ENDBRANCH  10  12
ENDBRANCH   7  10
ENDBRANCH   5   6
BRANCH   5  23
ATOM     23  CB  ASN A   3      20.153  12.256  -5.193  1.00  0.00     0.134 C 
BRANCH  23  24
ATOM     24  CG  ASN A   3      20.406  11.661  -3.831  1.00  0.00     0.220 C 
ATOM     25  ND2 ASN A   3      21.610  10.940  -3.567  1.00  0.00    -0.370 N 
ATOM     26  OD1 ASN A   3      19.546  11.794  -2.920  1.00  0.00    -0.275 OA
ATOM     27  H   UNL     1      22.328  10.812  -4.313  1.00  0.00     0.159 HD
ATOM     28  H   UNL     1      21.783  10.530  -2.623  1.00  0.00     0.159 HD
ENDBRANCH  23  24
ENDBRANCH   5  23
ENDBRANCH   1   5
BRANCH   3  29
ATOM     29  CA  LEU A   4      21.347   8.761  -8.138  1.00  0.00     0.171 C 
BRANCH  29  30
ATOM     30  C   LEU A   4      22.712   9.218  -8.519  1.00  0.00     0.243 C 
ATOM     31  N   ARG A   5      23.822   8.723  -7.783  1.00  0.00    -0.343 N 
ATOM     32  O   LEU A   4      22.876  10.033  -9.468  1.00  0.00    -0.273 OA
ATOM     33  H   UNL     1      23.666   8.034  -7.013  1.00  0.00     0.164 HD
BRANCH  31  34
ATOM     34  CA  ARG A   5      25.185   9.124  -8.072  1.00  0.00     0.171 C 
BRANCH  34  35
ATOM     35  C   ARG A   5      25.899   7.969  -8.685  1.00  0.00     0.243 C 
ATOM     36  N   ASN A   6      25.912   7.865 -10.102  1.00  0.00    -0.341 N 
ATOM     37  O   ARG A   5      26.446   7.088  -7.969  1.00  0.00    -0.273 OA
ATOM     38  H   UNL     1      25.488   8.648 -10.650  1.00  0.00     0.164 HD
BRANCH  36  39
ATOM     39  CA  ASN A   6      26.541   6.751 -10.803  1.00  0.00     0.201 C 
BRANCH  39  40
ATOM     40  C   ASN A   6      27.992   6.642 -10.415  1.00  0.00     0.326 C 
ATOM     41  O   ASN A   6      28.794   7.579 -10.677  1.00  0.00    -0.250 OA
BRANCH  40  42
ATOM     42  OXT ASN A   6      28.450   5.500  -9.767  1.00  0.00    -0.480 OA
ATOM     43  H   UNL     1      29.423   5.409  -9.498  1.00  0.00     0.296 HD
ENDBRANCH  40  42
ENDBRANCH  39  40
BRANCH  39  44
ATOM     44  CB  ASN A   6      26.424   6.947 -12.323  1.00  0.00     0.136 C 
BRANCH  44  45
ATOM     45  CG  ASN A   6      25.010   7.181 -12.773  1.00  0.00     0.220 C 
ATOM     46  ND2 ASN A   6      24.753   8.090 -13.833  1.00  0.00    -0.370 N 
ATOM     47  OD1 ASN A   6      24.053   6.558 -12.243  1.00  0.00    -0.275 OA
ATOM     48  H   UNL     1      25.533   8.600 -14.306  1.00  0.00     0.159 HD
ATOM     49  H   UNL     1      23.775   8.258 -14.157  1.00  0.00     0.159 HD
ENDBRANCH  44  45
ENDBRANCH  39  44
ENDBRANCH  36  39
ENDBRANCH  34  35
BRANCH  34  50
ATOM     50  CB  ARG A   5      25.863   9.606  -6.794  1.00  0.00     0.037 C 
BRANCH  50  51
ATOM     51  CG  ARG A   5      25.179  10.868  -6.268  1.00  0.00     0.024 C 
BRANCH  51  52
ATOM     52  CD  ARG A   5      25.855  11.381  -5.001  1.00  0.00     0.116 C 
BRANCH  52  53
ATOM     53  NE  ARG A   5      25.362  10.681  -3.817  1.00  0.00    -0.357 N 
ATOM     54  CZ  ARG A   5      25.464  11.277  -2.528  1.00  0.00     0.185 C 
ATOM     55  NH2 ARG A   5      26.095  12.547  -2.386  1.00  0.00    -0.370 N 
ATOM     56  H   UNL     1      24.873   9.762  -3.912  1.00  0.00     0.163 HD
ATOM     57  H   UNL     1      26.179  13.015  -1.456  1.00  0.00     0.159 HD
ATOM     58  H   UNL     1      26.179  13.015  -1.456  1.00  0.00     0.159 HD
BRANCH  54  59
ATOM     59  NH1 ARG A   5      24.965  10.669  -1.498  1.00  0.00    -0.270 NA
ATOM     60  H   UNL     1      25.013  11.077  -0.538  1.00  0.00     0.191 HD
ENDBRANCH  54  59
ENDBRANCH  52  53
ENDBRANCH  51  52
ENDBRANCH  50  51
ENDBRANCH  34  50
ENDBRANCH  31  34
ENDBRANCH  29  30
BRANCH  29  61
ATOM     61  CB  LEU A   4      20.654   8.000  -9.270  1.00  0.00     0.038 C 
BRANCH  61  62
ATOM     62  CG  LEU A   4      21.448   6.772  -9.768  1.00  0.00    -0.015 C 
ATOM     63  CD1 LEU A   4      21.762   5.779  -8.639  1.00  0.00     0.007 C 
ATOM     64  CD2 LEU A   4      20.661   6.068 -10.877  1.00  0.00     0.007 C 
ENDBRANCH  61  62
ENDBRANCH  29  61
ENDBRANCH   3  29
TORSDOF 26
