REMARK SMILES CC(C)C[C@H](NC(=O)[C@H](Cc1c[nH]cn1)NC(=O)[C@@H](N)CO)C(=O)NCC(=O)N[C@@H](CCCNC(=N)N)C(=O)N[C@@H](CC(N)=O)C(=O)O
REMARK SMILES IDX 23 1 24 2 25 3 5 5 6 6 7 7 8 8 9 10 16 11 17 12 18 13 19 15
REMARK SMILES IDX 20 16 21 19 22 20 10 22 11 23 15 24 12 25 14 26 13 27 4 29
REMARK SMILES IDX 2 30 1 31 3 32 26 33 27 34 29 35 28 36 30 38 38 39 40 40
REMARK SMILES IDX 39 41 41 43 46 44 47 45 48 46 42 48 43 49 44 50 45 51 31 54
REMARK SMILES IDX 32 55 33 56 34 57 35 58 37 59 36 63
REMARK H PARENT 25 4 6 9 16 14 20 17 20 18 22 21 13 28 29 37 40 42 48 47 44 52
REMARK H PARENT 44 53 34 60 37 61 37 62 36 64
ROOT
ATOM      1  C   LEU A   3       1.210  -0.852  -1.056  1.00  0.00     0.243 C 
ATOM      2  O   LEU A   3       0.945   0.379  -0.970  1.00  0.00    -0.273 OA
ATOM      3  N   GLY A   4       0.460  -1.685  -1.953  1.00  0.00    -0.345 N 
ATOM      4  H   UNL     1       0.738  -2.685  -2.068  1.00  0.00     0.164 HD
ENDROOT
BRANCH   1   5
ATOM      5  CA  LEU A   3       2.278  -1.464  -0.187  1.00  0.00     0.171 C 
BRANCH   5   6
ATOM      6  N   LEU A   3       3.125  -0.409   0.378  1.00  0.00    -0.342 N 
ATOM      7  C   HIS A   2       4.365  -0.011  -0.225  1.00  0.00     0.243 C 
ATOM      8  O   HIS A   2       4.839  -0.665  -1.196  1.00  0.00    -0.273 OA
ATOM      9  H   UNL     1       2.740   0.179   1.153  1.00  0.00     0.164 HD
BRANCH   7  10
ATOM     10  CA  HIS A   2       5.083   1.222   0.270  1.00  0.00     0.177 C 
BRANCH  10  11
ATOM     11  N   HIS A   2       6.535   1.066   0.123  1.00  0.00    -0.342 N 
ATOM     12  C   SER A   1       7.281   0.137   0.926  1.00  0.00     0.239 C 
ATOM     13  O   SER A   1       6.718  -0.470   1.876  1.00  0.00    -0.273 OA
ATOM     14  H   UNL     1       7.052   1.650  -0.572  1.00  0.00     0.164 HD
BRANCH  12  15
ATOM     15  CA  SER A   1       8.722  -0.168   0.596  1.00  0.00     0.167 C 
BRANCH  15  16
ATOM     16  N   SER A   1       9.506  -0.321   1.825  1.00  0.00    -0.318 NA
ATOM     17  H   UNL     1      10.500  -0.510   1.560  1.00  0.00     0.119 HD
ATOM     18  H   UNL     1       9.509   0.597   2.330  1.00  0.00     0.119 HD
ENDBRANCH  15  16
BRANCH  15  19
ATOM     19  CB  SER A   1       8.814  -1.442  -0.262  1.00  0.00     0.184 C 
BRANCH  19  20
ATOM     20  OG  SER A   1       8.443  -2.580   0.475  1.00  0.00    -0.394 OA
ATOM     21  H   UNL     1       7.458  -2.669   0.392  1.00  0.00     0.210 HD
ENDBRANCH  19  20
ENDBRANCH  15  19
ENDBRANCH  12  15
ENDBRANCH  10  11
BRANCH  10  22
ATOM     22  CB  HIS A   2       4.572   2.500  -0.432  1.00  0.00     0.093 C 
BRANCH  22  23
ATOM     23  CG  HIS A   2       4.517   2.399  -1.933  1.00  0.00     0.061 A 
ATOM     24  ND1 HIS A   2       5.509   1.916  -2.706  1.00  0.00    -0.242 NA
ATOM     25  CD2 HIS A   2       3.484   2.853  -2.729  1.00  0.00     0.107 A 
ATOM     26  CE1 HIS A   2       5.048   2.074  -3.965  1.00  0.00     0.196 A 
ATOM     27  NE2 HIS A   2       3.825   2.641  -4.008  1.00  0.00    -0.351 N 
ATOM     28  H   UNL     1       3.269   2.879  -4.858  1.00  0.00     0.167 HD
ENDBRANCH  22  23
ENDBRANCH  10  22
ENDBRANCH   7  10
ENDBRANCH   5   6
BRANCH   5  29
ATOM     29  CB  LEU A   3       1.630  -2.301   0.941  1.00  0.00     0.038 C 
BRANCH  29  30
ATOM     30  CG  LEU A   3       2.572  -3.305   1.654  1.00  0.00    -0.015 C 
ATOM     31  CD1 LEU A   3       3.742  -2.623   2.376  1.00  0.00     0.007 C 
ATOM     32  CD2 LEU A   3       3.079  -4.409   0.715  1.00  0.00     0.007 C 
ENDBRANCH  29  30
ENDBRANCH   5  29
ENDBRANCH   1   5
BRANCH   3  33
ATOM     33  CA  GLY A   4      -0.726  -1.202  -2.657  1.00  0.00     0.216 C 
BRANCH  33  34
ATOM     34  C   GLY A   4      -1.809  -0.851  -1.678  1.00  0.00     0.240 C 
ATOM     35  N   ARG A   5      -2.563   0.363  -1.841  1.00  0.00    -0.343 N 
ATOM     36  O   GLY A   4      -2.068  -1.640  -0.728  1.00  0.00    -0.273 OA
ATOM     37  H   UNL     1      -2.404   0.929  -2.705  1.00  0.00     0.164 HD
BRANCH  35  38
ATOM     38  CA  ARG A   5      -3.455   0.870  -0.792  1.00  0.00     0.171 C 
BRANCH  38  39
ATOM     39  C   ARG A   5      -4.649  -0.037  -0.658  1.00  0.00     0.243 C 
ATOM     40  N   ASN A   6      -5.057  -0.500   0.638  1.00  0.00    -0.341 N 
ATOM     41  O   ARG A   5      -5.304  -0.359  -1.685  1.00  0.00    -0.273 OA
ATOM     42  H   UNL     1      -4.474  -0.237   1.465  1.00  0.00     0.164 HD
BRANCH  40  43
ATOM     43  CA  ASN A   6      -6.193  -1.399   0.849  1.00  0.00     0.201 C 
BRANCH  43  44
ATOM     44  C   ASN A   6      -7.079  -0.841   1.928  1.00  0.00     0.326 C 
ATOM     45  O   ASN A   6      -6.622  -0.630   3.085  1.00  0.00    -0.250 OA
BRANCH  44  46
ATOM     46  OXT ASN A   6      -8.415  -0.560   1.648  1.00  0.00    -0.480 OA
ATOM     47  H   UNL     1      -9.026  -0.178   2.361  1.00  0.00     0.296 HD
ENDBRANCH  44  46
ENDBRANCH  43  44
BRANCH  43  48
ATOM     48  CB  ASN A   6      -5.675  -2.799   1.214  1.00  0.00     0.136 C 
BRANCH  48  49
ATOM     49  CG  ASN A   6      -6.795  -3.789   1.340  1.00  0.00     0.220 C 
ATOM     50  ND2 ASN A   6      -7.413  -4.333   0.172  1.00  0.00    -0.370 N 
ATOM     51  OD1 ASN A   6      -7.212  -4.121   2.483  1.00  0.00    -0.275 OA
ATOM     52  H   UNL     1      -7.065  -4.077  -0.778  1.00  0.00     0.159 HD
ATOM     53  H   UNL     1      -8.216  -4.994   0.261  1.00  0.00     0.159 HD
ENDBRANCH  48  49
ENDBRANCH  43  48
ENDBRANCH  40  43
ENDBRANCH  38  39
BRANCH  38  54
ATOM     54  CB  ARG A   5      -3.890   2.318  -1.111  1.00  0.00     0.037 C 
BRANCH  54  55
ATOM     55  CG  ARG A   5      -4.641   3.011   0.046  1.00  0.00     0.024 C 
BRANCH  55  56
ATOM     56  CD  ARG A   5      -6.167   2.871  -0.067  1.00  0.00     0.116 C 
BRANCH  56  57
ATOM     57  NE  ARG A   5      -6.828   3.602   1.013  1.00  0.00    -0.357 N 
ATOM     58  CZ  ARG A   5      -6.993   5.028   1.009  1.00  0.00     0.185 C 
ATOM     59  NH2 ARG A   5      -7.648   5.670   2.105  1.00  0.00    -0.370 N 
ATOM     60  H   UNL     1      -7.258   3.050   1.791  1.00  0.00     0.163 HD
ATOM     61  H   UNL     1      -7.779   6.706   2.119  1.00  0.00     0.159 HD
ATOM     62  H   UNL     1      -8.001   5.109   2.913  1.00  0.00     0.159 HD
BRANCH  58  63
ATOM     63  NH1 ARG A   5      -6.560   5.733   0.012  1.00  0.00    -0.270 NA
ATOM     64  H   UNL     1      -6.675   6.771  -0.017  1.00  0.00     0.191 HD
ENDBRANCH  58  63
ENDBRANCH  56  57
ENDBRANCH  55  56
ENDBRANCH  54  55
ENDBRANCH  38  54
ENDBRANCH  35  38
ENDBRANCH  33  34
ENDBRANCH   3  33
TORSDOF 26
