REMARK SMILES CC(C)C[C@H](NC(=O)[C@@H](NC(=O)[C@@H](N)CO)C(C)C)C(=O)N[C@@H](C)C(=O)N[C@@H](CCCNC(=N)N)C(=O)N[C@@H](CC(N)=O)C(=O)O
REMARK SMILES IDX 20 1 21 2 22 3 5 5 6 6 7 7 8 8 9 10 10 11 11 12 12 13 13 15
REMARK SMILES IDX 14 16 15 19 16 20 17 22 18 23 19 24 4 25 2 26 1 27 3 28
REMARK SMILES IDX 23 29 24 30 25 31 27 32 26 33 28 35 36 36 38 37 37 38 39 40
REMARK SMILES IDX 44 41 45 42 46 43 40 45 41 46 42 47 43 48 29 51 30 52 31 53
REMARK SMILES IDX 32 54 33 55 35 56 34 60
REMARK H PARENT 22 4 6 9 10 14 14 17 14 18 16 21 27 34 38 39 46 44 42 49 42 50
REMARK H PARENT 32 57 35 58 35 59 34 61
ROOT
ATOM      1  C   LEU A   3      20.047  10.080  -6.474  1.00  0.00     0.243 C 
ATOM      2  O   LEU A   3      20.164   9.156  -5.622  1.00  0.00    -0.273 OA
ATOM      3  N   ALA A   4      20.562   9.914  -7.784  1.00  0.00    -0.343 N 
ATOM      4  H   UNL     1      20.401  10.658  -8.501  1.00  0.00     0.164 HD
ENDROOT
BRANCH   1   5
ATOM      5  CA  LEU A   3      19.332  11.350  -6.139  1.00  0.00     0.171 C 
BRANCH   5   6
ATOM      6  N   LEU A   3      18.077  11.019  -5.518  1.00  0.00    -0.343 N 
ATOM      7  C   VAL A   2      16.876  11.744  -5.745  1.00  0.00     0.243 C 
ATOM      8  O   VAL A   2      16.891  12.793  -6.448  1.00  0.00    -0.273 OA
ATOM      9  H   UNL     1      18.143  10.363  -4.715  1.00  0.00     0.164 HD
BRANCH   7  10
ATOM     10  CA  VAL A   2      15.623  11.275  -5.055  1.00  0.00     0.173 C 
BRANCH  10  11
ATOM     11  N   VAL A   2      14.438  11.731  -5.768  1.00  0.00    -0.343 N 
ATOM     12  C   SER A   1      13.916  13.047  -5.634  1.00  0.00     0.239 C 
ATOM     13  O   SER A   1      14.454  13.860  -4.833  1.00  0.00    -0.273 OA
ATOM     14  H   UNL     1      13.830  11.016  -6.215  1.00  0.00     0.164 HD
BRANCH  12  15
ATOM     15  CA  SER A   1      12.662  13.416  -6.389  1.00  0.00     0.167 C 
BRANCH  15  16
ATOM     16  N   SER A   1      12.460  14.866  -6.394  1.00  0.00    -0.318 NA
ATOM     17  H   UNL     1      13.322  15.341  -6.752  1.00  0.00     0.119 HD
ATOM     18  H   UNL     1      12.295  15.193  -5.414  1.00  0.00     0.119 HD
ENDBRANCH  15  16
BRANCH  15  19
ATOM     19  CB  SER A   1      12.691  12.898  -7.845  1.00  0.00     0.184 C 
BRANCH  19  20
ATOM     20  OG  SER A   1      11.435  13.050  -8.444  1.00  0.00    -0.394 OA
ATOM     21  H   UNL     1      11.372  13.995  -8.741  1.00  0.00     0.210 HD
ENDBRANCH  19  20
ENDBRANCH  15  19
ENDBRANCH  12  15
ENDBRANCH  10  11
BRANCH  10  22
ATOM     22  CB  VAL A   2      15.586   9.721  -4.892  1.00  0.00     0.015 C 
ATOM     23  CG1 VAL A   2      14.379   9.267  -4.077  1.00  0.00     0.010 C 
ATOM     24  CG2 VAL A   2      15.666   8.944  -6.221  1.00  0.00     0.010 C 
ENDBRANCH  10  22
ENDBRANCH   7  10
ENDBRANCH   5   6
BRANCH   5  25
ATOM     25  CB  LEU A   3      20.162  12.250  -5.215  1.00  0.00     0.038 C 
BRANCH  25  26
ATOM     26  CG  LEU A   3      20.417  11.679  -3.791  1.00  0.00    -0.015 C 
ATOM     27  CD1 LEU A   3      21.819  12.067  -3.317  1.00  0.00     0.007 C 
ATOM     28  CD2 LEU A   3      19.369  12.169  -2.780  1.00  0.00     0.007 C 
ENDBRANCH  25  26
ENDBRANCH   5  25
ENDBRANCH   1   5
BRANCH   3  29
ATOM     29  CA  ALA A   4      21.341   8.748  -8.157  1.00  0.00     0.168 C 
ATOM     30  CB  ALA A   4      20.664   8.007  -9.299  1.00  0.00     0.041 C 
BRANCH  29  31
ATOM     31  C   ALA A   4      22.710   9.199  -8.533  1.00  0.00     0.242 C 
ATOM     32  N   ARG A   5      23.817   8.707  -7.791  1.00  0.00    -0.343 N 
ATOM     33  O   ALA A   4      22.877  10.027  -9.470  1.00  0.00    -0.273 OA
ATOM     34  H   UNL     1      23.661   7.985  -7.050  1.00  0.00     0.164 HD
BRANCH  32  35
ATOM     35  CA  ARG A   5      25.181   9.117  -8.072  1.00  0.00     0.171 C 
BRANCH  35  36
ATOM     36  C   ARG A   5      25.901   7.968  -8.686  1.00  0.00     0.243 C 
ATOM     37  N   ASN A   6      25.916   7.866 -10.103  1.00  0.00    -0.341 N 
ATOM     38  O   ARG A   5      26.450   7.087  -7.970  1.00  0.00    -0.273 OA
ATOM     39  H   UNL     1      25.496   8.651 -10.651  1.00  0.00     0.164 HD
BRANCH  37  40
ATOM     40  CA  ASN A   6      26.543   6.751 -10.804  1.00  0.00     0.201 C 
BRANCH  40  41
ATOM     41  C   ASN A   6      27.994   6.642 -10.417  1.00  0.00     0.326 C 
ATOM     42  O   ASN A   6      28.795   7.579 -10.677  1.00  0.00    -0.250 OA
BRANCH  41  43
ATOM     43  OXT ASN A   6      28.453   5.497  -9.772  1.00  0.00    -0.480 OA
ATOM     44  H   UNL     1      29.426   5.407  -9.504  1.00  0.00     0.296 HD
ENDBRANCH  41  43
ENDBRANCH  40  41
BRANCH  40  45
ATOM     45  CB  ASN A   6      26.424   6.946 -12.323  1.00  0.00     0.136 C 
BRANCH  45  46
ATOM     46  CG  ASN A   6      25.009   7.181 -12.772  1.00  0.00     0.220 C 
ATOM     47  ND2 ASN A   6      24.753   8.089 -13.834  1.00  0.00    -0.370 N 
ATOM     48  OD1 ASN A   6      24.051   6.563 -12.238  1.00  0.00    -0.275 OA
ATOM     49  H   UNL     1      25.533   8.595 -14.309  1.00  0.00     0.159 HD
ATOM     50  H   UNL     1      23.775   8.258 -14.156  1.00  0.00     0.159 HD
ENDBRANCH  45  46
ENDBRANCH  40  45
ENDBRANCH  37  40
ENDBRANCH  35  36
BRANCH  35  51
ATOM     51  CB  ARG A   5      25.855   9.600  -6.793  1.00  0.00     0.037 C 
BRANCH  51  52
ATOM     52  CG  ARG A   5      25.163  10.859  -6.272  1.00  0.00     0.024 C 
BRANCH  52  53
ATOM     53  CD  ARG A   5      25.838  11.391  -5.015  1.00  0.00     0.116 C 
BRANCH  53  54
ATOM     54  NE  ARG A   5      25.377  10.684  -3.823  1.00  0.00    -0.357 N 
ATOM     55  CZ  ARG A   5      25.468  11.279  -2.527  1.00  0.00     0.185 C 
ATOM     56  NH2 ARG A   5      26.105  12.541  -2.350  1.00  0.00    -0.370 N 
ATOM     57  H   UNL     1      24.898   9.759  -3.921  1.00  0.00     0.163 HD
ATOM     58  H   UNL     1      26.081  13.007  -1.416  1.00  0.00     0.159 HD
ATOM     59  H   UNL     1      26.691  12.983  -3.091  1.00  0.00     0.159 HD
BRANCH  55  60
ATOM     60  NH1 ARG A   5      24.957  10.679  -1.500  1.00  0.00    -0.270 NA
ATOM     61  H   UNL     1      24.474   9.757  -1.584  1.00  0.00     0.191 HD
ENDBRANCH  55  60
ENDBRANCH  53  54
ENDBRANCH  52  53
ENDBRANCH  51  52
ENDBRANCH  35  51
ENDBRANCH  32  35
ENDBRANCH  29  31
ENDBRANCH   3  29
TORSDOF 25
