REMARK SMILES CC[C@H](C)[C@H](NC(=O)[C@@H](N)CO)C(=O)N[C@@H](CC(C)C)C(=O)N[C@@H](CCC(N)=O)C(=O)N[C@@H](CCCNC(=N)N)C(=O)N[C@@H](CC(N)=O)C(=O)O
REMARK SMILES IDX 21 1 22 2 23 3 16 5 15 6 13 7 14 8 5 10 6 11 7 12 8 13 9 15
REMARK SMILES IDX 10 16 11 19 12 20 3 22 4 23 2 24 1 25 17 26 18 27 19 28
REMARK SMILES IDX 20 29 24 30 30 31 32 32 31 33 33 35 41 36 43 37 42 38 44 40
REMARK SMILES IDX 49 41 50 42 51 43 45 45 46 46 47 47 48 48 34 51 35 52 36 53
REMARK SMILES IDX 37 54 38 55 40 56 39 60 25 62 26 63 27 64 28 65 29 66
REMARK H PARENT 23 4 15 9 6 14 10 17 10 18 12 21 32 34 43 39 51 44 47 49 47 50
REMARK H PARENT 37 57 40 58 40 59 39 61 28 67 28 68
ROOT
ATOM      1  C   LEU A   3       1.157  -0.878   0.092  1.00  0.00     0.243 C 
ATOM      2  O   LEU A   3       1.057  -0.168   1.135  1.00  0.00    -0.273 OA
ATOM      3  N   GLN A   4       0.279  -0.661  -1.027  1.00  0.00    -0.343 N 
ATOM      4  H   UNL     1       0.305  -1.345  -1.819  1.00  0.00     0.164 HD
ENDROOT
BRANCH   1   5
ATOM      5  CA  LEU A   3       2.182  -1.977   0.034  1.00  0.00     0.171 C 
BRANCH   5   6
ATOM      6  N   LEU A   3       3.457  -1.517   0.600  1.00  0.00    -0.343 N 
ATOM      7  C   ILE A   2       4.234  -0.472  -0.005  1.00  0.00     0.243 C 
ATOM      8  O   ILE A   2       3.731   0.239  -0.917  1.00  0.00    -0.273 OA
ATOM      9  H   UNL     1       3.841  -1.985   1.445  1.00  0.00     0.164 HD
BRANCH   7  10
ATOM     10  CA  ILE A   2       5.638  -0.180   0.484  1.00  0.00     0.174 C 
BRANCH  10  11
ATOM     11  N   ILE A   2       6.378   0.549  -0.556  1.00  0.00    -0.343 N 
ATOM     12  C   SER A   1       7.089  -0.110  -1.615  1.00  0.00     0.239 C 
ATOM     13  O   SER A   1       7.034  -1.363  -1.727  1.00  0.00    -0.273 OA
ATOM     14  H   UNL     1       6.292   1.591  -0.592  1.00  0.00     0.164 HD
BRANCH  12  15
ATOM     15  CA  SER A   1       7.843   0.707  -2.638  1.00  0.00     0.167 C 
BRANCH  15  16
ATOM     16  N   SER A   1       9.135   0.100  -2.957  1.00  0.00    -0.318 NA
ATOM     17  H   UNL     1       9.688   0.002  -2.075  1.00  0.00     0.119 HD
ATOM     18  H   UNL     1       8.993  -0.859  -3.345  1.00  0.00     0.119 HD
ENDBRANCH  15  16
BRANCH  15  19
ATOM     19  CB  SER A   1       7.001   0.869  -3.910  1.00  0.00     0.184 C 
BRANCH  19  20
ATOM     20  OG  SER A   1       7.673   1.663  -4.851  1.00  0.00    -0.394 OA
ATOM     21  H   UNL     1       7.607   2.600  -4.527  1.00  0.00     0.210 HD
ENDBRANCH  19  20
ENDBRANCH  15  19
ENDBRANCH  12  15
ENDBRANCH  10  11
BRANCH  10  22
ATOM     22  CB  ILE A   2       5.697   0.620   1.832  1.00  0.00     0.018 C 
ATOM     23  CG1 ILE A   2       4.474   1.529   2.055  1.00  0.00     0.010 C 
BRANCH  22  24
ATOM     24  CG2 ILE A   2       5.916  -0.292   3.062  1.00  0.00     0.002 C 
ATOM     25  CD1 ILE A   2       7.361  -0.784   3.178  1.00  0.00     0.004 C 
ENDBRANCH  22  24
ENDBRANCH  10  22
ENDBRANCH   7  10
ENDBRANCH   5   6
BRANCH   5  26
ATOM     26  CB  LEU A   3       1.642  -3.213   0.788  1.00  0.00     0.038 C 
BRANCH  26  27
ATOM     27  CG  LEU A   3       2.543  -4.465   0.663  1.00  0.00    -0.015 C 
ATOM     28  CD1 LEU A   3       2.085  -5.531   1.667  1.00  0.00     0.007 C 
ATOM     29  CD2 LEU A   3       2.525  -5.050  -0.759  1.00  0.00     0.007 C 
ENDBRANCH  26  27
ENDBRANCH   5  26
ENDBRANCH   1   5
BRANCH   3  30
ATOM     30  CA  GLN A   4      -0.597   0.509  -1.142  1.00  0.00     0.171 C 
BRANCH  30  31
ATOM     31  C   GLN A   4      -2.034   0.062  -1.204  1.00  0.00     0.243 C 
ATOM     32  N   ARG A   5      -3.012   0.689  -0.363  1.00  0.00    -0.343 N 
ATOM     33  O   GLN A   4      -2.377  -0.844  -2.013  1.00  0.00    -0.273 OA
ATOM     34  H   UNL     1      -2.725   1.523   0.201  1.00  0.00     0.164 HD
BRANCH  32  35
ATOM     35  CA  ARG A   5      -4.416   0.267  -0.304  1.00  0.00     0.171 C 
BRANCH  35  36
ATOM     36  C   ARG A   5      -5.265   1.206  -1.141  1.00  0.00     0.243 C 
ATOM     37  N   ASN A   6      -6.695   1.263  -0.983  1.00  0.00    -0.341 N 
ATOM     38  O   ARG A   5      -4.710   1.880  -2.049  1.00  0.00    -0.273 OA
ATOM     39  H   UNL     1      -7.168   0.512  -0.442  1.00  0.00     0.164 HD
BRANCH  37  40
ATOM     40  CA  ASN A   6      -7.559   2.312  -1.548  1.00  0.00     0.201 C 
BRANCH  40  41
ATOM     41  C   ASN A   6      -7.842   2.051  -3.003  1.00  0.00     0.326 C 
ATOM     42  O   ASN A   6      -6.956   1.567  -3.758  1.00  0.00    -0.250 OA
BRANCH  41  43
ATOM     43  OXT ASN A   6      -9.088   2.386  -3.528  1.00  0.00    -0.480 OA
ATOM     44  H   UNL     1      -9.297   2.233  -4.507  1.00  0.00     0.296 HD
ENDBRANCH  41  43
ENDBRANCH  40  41
BRANCH  40  45
ATOM     45  CB  ASN A   6      -7.004   3.735  -1.336  1.00  0.00     0.136 C 
BRANCH  45  46
ATOM     46  CG  ASN A   6      -6.586   3.993   0.086  1.00  0.00     0.220 C 
ATOM     47  ND2 ASN A   6      -5.450   4.813   0.364  1.00  0.00    -0.370 N 
ATOM     48  OD1 ASN A   6      -7.267   3.532   1.043  1.00  0.00    -0.275 OA
ATOM     49  H   UNL     1      -4.919   5.274  -0.409  1.00  0.00     0.159 HD
ATOM     50  H   UNL     1      -5.147   4.984   1.352  1.00  0.00     0.159 HD
ENDBRANCH  45  46
ENDBRANCH  40  45
ENDBRANCH  37  40
ENDBRANCH  35  36
BRANCH  35  51
ATOM     51  CB  ARG A   5      -4.869   0.222   1.173  1.00  0.00     0.037 C 
BRANCH  51  52
ATOM     52  CG  ARG A   5      -3.991  -0.727   2.008  1.00  0.00     0.024 C 
BRANCH  52  53
ATOM     53  CD  ARG A   5      -4.464  -0.803   3.467  1.00  0.00     0.116 C 
BRANCH  53  54
ATOM     54  NE  ARG A   5      -5.803  -1.388   3.564  1.00  0.00    -0.357 N 
ATOM     55  CZ  ARG A   5      -6.109  -2.775   3.326  1.00  0.00     0.185 C 
ATOM     56  NH2 ARG A   5      -7.476  -3.194   3.278  1.00  0.00    -0.370 N 
ATOM     57  H   UNL     1      -6.590  -0.746   3.813  1.00  0.00     0.163 HD
ATOM     58  H   UNL     1      -7.721  -4.198   3.113  1.00  0.00     0.159 HD
ATOM     59  H   UNL     1      -8.245  -2.499   3.391  1.00  0.00     0.159 HD
BRANCH  55  60
ATOM     60  NH1 ARG A   5      -5.179  -3.664   3.177  1.00  0.00    -0.270 NA
ATOM     61  H   UNL     1      -4.158  -3.453   3.221  1.00  0.00     0.191 HD
ENDBRANCH  55  60
ENDBRANCH  53  54
ENDBRANCH  52  53
ENDBRANCH  51  52
ENDBRANCH  35  51
ENDBRANCH  32  35
ENDBRANCH  30  31
BRANCH  30  62
ATOM     62  CB  GLN A   4      -0.206   1.313  -2.398  1.00  0.00     0.045 C 
BRANCH  62  63
ATOM     63  CG  GLN A   4      -1.004   2.614  -2.582  1.00  0.00     0.102 C 
BRANCH  63  64
ATOM     64  CD  GLN A   4      -0.808   3.576  -1.443  1.00  0.00     0.217 C 
ATOM     65  NE2 GLN A   4      -1.936   4.103  -0.740  1.00  0.00    -0.370 N 
ATOM     66  OE1 GLN A   4       0.356   3.935  -1.116  1.00  0.00    -0.275 OA
ATOM     67  H   UNL     1      -1.798   4.764   0.056  1.00  0.00     0.159 HD
ATOM     68  H   UNL     1      -2.908   3.858  -1.033  1.00  0.00     0.159 HD
ENDBRANCH  63  64
ENDBRANCH  62  63
ENDBRANCH  30  62
ENDBRANCH   3  30
TORSDOF 29
