REMARK SMILES CC(C)[C@H](NC(=O)[C@H](Cc1ccccc1)NC(=O)[C@@H](N)CO)C(=O)N[C@@H](Cc1c[nH]cn1)C(=O)N[C@@H](CCCNC(=N)N)C(=O)N[C@@H](CC(N)=O)C(=O)O
REMARK SMILES IDX 23 1 24 2 25 3 4 5 5 6 6 7 7 8 8 10 16 11 17 12 18 13 19 15
REMARK SMILES IDX 20 16 21 19 22 20 9 22 10 23 11 24 15 25 12 26 14 27 13 28
REMARK SMILES IDX 2 29 1 30 3 31 26 32 33 33 35 34 34 35 36 37 44 38 46 39
REMARK SMILES IDX 45 40 47 42 52 43 53 44 54 45 48 47 49 48 50 49 51 50 37 53
REMARK SMILES IDX 38 54 39 55 40 56 41 57 43 58 42 62 27 64 28 65 32 66 29 67
REMARK SMILES IDX 31 68 30 69
REMARK H PARENT 25 4 5 9 16 14 20 17 20 18 22 21 35 36 46 41 54 46 50 51 50 52
REMARK H PARENT 40 59 43 60 43 61 42 63 30 70
ROOT
ATOM      1  C   VAL A   3      -1.249  -0.278  -0.258  1.00  0.00     0.243 C 
ATOM      2  O   VAL A   3      -1.311  -1.230   0.569  1.00  0.00    -0.273 OA
ATOM      3  N   HIS A   4      -0.229  -0.266  -1.266  1.00  0.00    -0.342 N 
ATOM      4  H   UNL     1      -0.235   0.534  -1.939  1.00  0.00     0.164 HD
ENDROOT
BRANCH   1   5
ATOM      5  CA  VAL A   3      -2.189   0.896  -0.126  1.00  0.00     0.174 C 
BRANCH   5   6
ATOM      6  N   VAL A   3      -3.491   0.454   0.389  1.00  0.00    -0.342 N 
ATOM      7  C   PHE A   2      -4.602   0.172  -0.475  1.00  0.00     0.243 C 
ATOM      8  O   PHE A   2      -4.461   0.208  -1.729  1.00  0.00    -0.273 OA
ATOM      9  H   UNL     1      -3.592   0.224   1.405  1.00  0.00     0.164 HD
BRANCH   7  10
ATOM     10  CA  PHE A   2      -5.930  -0.218   0.114  1.00  0.00     0.175 C 
BRANCH  10  11
ATOM     11  N   PHE A   2      -7.011   0.442  -0.625  1.00  0.00    -0.343 N 
ATOM     12  C   SER A   1      -7.368   1.806  -0.366  1.00  0.00     0.239 C 
ATOM     13  O   SER A   1      -6.596   2.536   0.307  1.00  0.00    -0.273 OA
ATOM     14  H   UNL     1      -7.484  -0.074  -1.403  1.00  0.00     0.164 HD
BRANCH  12  15
ATOM     15  CA  SER A   1      -8.623   2.408  -0.955  1.00  0.00     0.167 C 
BRANCH  15  16
ATOM     16  N   SER A   1      -8.430   2.716  -2.375  1.00  0.00    -0.318 NA
ATOM     17  H   UNL     1      -8.040   1.880  -2.870  1.00  0.00     0.119 HD
ATOM     18  H   UNL     1      -7.730   3.487  -2.460  1.00  0.00     0.119 HD
ENDBRANCH  15  16
BRANCH  15  19
ATOM     19  CB  SER A   1      -9.843   1.482  -0.783  1.00  0.00     0.184 C 
BRANCH  19  20
ATOM     20  OG  SER A   1      -9.997   1.106   0.553  1.00  0.00    -0.394 OA
ATOM     21  H   UNL     1     -10.371   1.888   1.038  1.00  0.00     0.210 HD
ENDBRANCH  19  20
ENDBRANCH  15  19
ENDBRANCH  12  15
ENDBRANCH  10  11
BRANCH  10  22
ATOM     22  CB  PHE A   2      -6.091  -1.749   0.079  1.00  0.00     0.070 C 
BRANCH  22  23
ATOM     23  CG  PHE A   2      -7.376  -2.185   0.742  1.00  0.00    -0.045 A 
ATOM     24  CD1 PHE A   2      -7.456  -2.282   2.141  1.00  0.00     0.004 A 
ATOM     25  CD2 PHE A   2      -8.524  -2.453  -0.026  1.00  0.00     0.004 A 
ATOM     26  CE1 PHE A   2      -8.646  -2.676   2.759  1.00  0.00     0.000 A 
ATOM     27  CE2 PHE A   2      -9.719  -2.831   0.593  1.00  0.00     0.000 A 
ATOM     28  CZ  PHE A   2      -9.777  -2.954   1.985  1.00  0.00     0.000 A 
ENDBRANCH  22  23
ENDBRANCH  10  22
ENDBRANCH   7  10
ENDBRANCH   5   6
BRANCH   5  29
ATOM     29  CB  VAL A   3      -1.578   2.034   0.744  1.00  0.00     0.015 C 
ATOM     30  CG1 VAL A   3      -1.213   1.593   2.170  1.00  0.00     0.010 C 
ATOM     31  CG2 VAL A   3      -2.511   3.255   0.783  1.00  0.00     0.010 C 
ENDBRANCH   5  29
ENDBRANCH   1   5
BRANCH   3  32
ATOM     32  CA  HIS A   4       0.958  -1.126  -1.177  1.00  0.00     0.177 C 
BRANCH  32  33
ATOM     33  C   HIS A   4       1.932  -0.584  -0.160  1.00  0.00     0.243 C 
ATOM     34  N   ARG A   5       2.911  -1.456   0.417  1.00  0.00    -0.343 N 
ATOM     35  O   HIS A   4       1.916   0.644   0.142  1.00  0.00    -0.273 OA
ATOM     36  H   UNL     1       2.879  -2.478   0.181  1.00  0.00     0.164 HD
BRANCH  34  37
ATOM     37  CA  ARG A   5       4.058  -0.941   1.175  1.00  0.00     0.171 C 
BRANCH  37  38
ATOM     38  C   ARG A   5       4.991  -0.238   0.221  1.00  0.00     0.243 C 
ATOM     39  N   ASN A   6       5.662  -0.977  -0.821  1.00  0.00    -0.341 N 
ATOM     40  O   ARG A   5       5.084   1.019   0.272  1.00  0.00    -0.273 OA
ATOM     41  H   UNL     1       5.496  -2.007  -0.862  1.00  0.00     0.164 HD
BRANCH  39  42
ATOM     42  CA  ASN A   6       6.401  -0.338  -1.920  1.00  0.00     0.201 C 
BRANCH  42  43
ATOM     43  C   ASN A   6       6.510  -1.295  -3.077  1.00  0.00     0.326 C 
ATOM     44  O   ASN A   6       7.147  -2.375  -2.942  1.00  0.00    -0.250 OA
BRANCH  43  45
ATOM     45  OXT ASN A   6       5.914  -0.991  -4.297  1.00  0.00    -0.480 OA
ATOM     46  H   UNL     1       5.994  -1.619  -5.086  1.00  0.00     0.296 HD
ENDBRANCH  43  45
ENDBRANCH  42  43
BRANCH  42  47
ATOM     47  CB  ASN A   6       7.816   0.098  -1.461  1.00  0.00     0.136 C 
BRANCH  47  48
ATOM     48  CG  ASN A   6       7.804   1.449  -0.802  1.00  0.00     0.220 C 
ATOM     49  ND2 ASN A   6       7.529   2.618  -1.569  1.00  0.00    -0.370 N 
ATOM     50  OD1 ASN A   6       8.031   1.556   0.433  1.00  0.00    -0.275 OA
ATOM     51  H   UNL     1       7.440   3.549  -1.099  1.00  0.00     0.159 HD
ATOM     52  H   UNL     1       7.366   2.552  -2.600  1.00  0.00     0.159 HD
ENDBRANCH  47  48
ENDBRANCH  42  47
ENDBRANCH  39  42
ENDBRANCH  37  38
BRANCH  37  53
ATOM     53  CB  ARG A   5       4.733  -2.095   1.946  1.00  0.00     0.037 C 
BRANCH  53  54
ATOM     54  CG  ARG A   5       5.824  -1.636   2.931  1.00  0.00     0.024 C 
BRANCH  54  55
ATOM     55  CD  ARG A   5       7.211  -1.568   2.284  1.00  0.00     0.116 C 
BRANCH  55  56
ATOM     56  NE  ARG A   5       8.233  -1.289   3.292  1.00  0.00    -0.357 N 
ATOM     57  CZ  ARG A   5       8.421  -0.004   3.889  1.00  0.00     0.185 C 
ATOM     58  NH2 ARG A   5       9.450   0.170   4.868  1.00  0.00    -0.370 N 
ATOM     59  H   UNL     1       8.872  -2.069   3.562  1.00  0.00     0.163 HD
ATOM     60  H   UNL     1       9.592   1.092   5.338  1.00  0.00     0.159 HD
ATOM     61  H   UNL     1      10.074  -0.623   5.129  1.00  0.00     0.159 HD
BRANCH  57  62
ATOM     62  NH1 ARG A   5       7.680   0.996   3.538  1.00  0.00    -0.270 NA
ATOM     63  H   UNL     1       7.811   1.948   3.948  1.00  0.00     0.191 HD
ENDBRANCH  57  62
ENDBRANCH  55  56
ENDBRANCH  54  55
ENDBRANCH  53  54
ENDBRANCH  37  53
ENDBRANCH  34  37
ENDBRANCH  32  33
BRANCH  32  64
ATOM     64  CB  HIS A   4       1.631  -1.328  -2.553  1.00  0.00     0.093 C 
BRANCH  64  65
ATOM     65  CG  HIS A   4       1.901  -0.047  -3.301  1.00  0.00     0.061 A 
ATOM     66  ND1 HIS A   4       1.296   0.277  -4.462  1.00  0.00    -0.242 NA
ATOM     67  CD2 HIS A   4       2.792   0.946  -2.952  1.00  0.00     0.107 A 
ATOM     68  CE1 HIS A   4       1.832   1.470  -4.788  1.00  0.00     0.196 A 
ATOM     69  NE2 HIS A   4       2.741   1.899  -3.891  1.00  0.00    -0.351 N 
ATOM     70  H   UNL     1       3.295   2.782  -3.928  1.00  0.00     0.167 HD
ENDBRANCH  64  65
ENDBRANCH  32  64
ENDBRANCH   3  32
TORSDOF 27
