REMARK SMILES CC(C)C[C@H](NC(=O)[C@H](Cc1ccccc1)NC(=O)[C@@H](N)Cc1c[nH]cn1)C(=O)N[C@@H](C)C(=O)N[C@@H](CCCNC(=N)N)C(=O)N[C@@H](CC(N)=O)C(=O)O
REMARK SMILES IDX 28 1 29 2 30 3 5 5 6 6 7 7 8 8 9 10 17 11 18 12 19 13 20 15
REMARK SMILES IDX 21 16 22 19 23 20 27 21 24 22 26 23 25 24 10 26 11 27 12 28
REMARK SMILES IDX 16 29 13 30 15 31 14 32 4 33 2 34 1 35 3 36 31 37 32 38
REMARK SMILES IDX 33 39 35 40 34 41 36 43 44 44 46 45 45 46 47 48 52 49 53 50
REMARK SMILES IDX 54 51 48 53 49 54 50 55 51 56 37 59 38 60 39 61 40 62 41 63
REMARK SMILES IDX 43 64 42 68
REMARK H PARENT 30 4 6 9 17 14 21 17 21 18 25 25 35 42 46 47 54 52 50 57 50 58
REMARK H PARENT 40 65 43 66 43 67 42 69
ROOT
ATOM      1  C   LEU A   3      20.054  10.081  -6.477  1.00  0.00     0.243 C 
ATOM      2  O   LEU A   3      20.168   9.158  -5.624  1.00  0.00    -0.273 OA
ATOM      3  N   ALA A   4      20.564   9.911  -7.787  1.00  0.00    -0.343 N 
ATOM      4  H   UNL     1      20.401  10.653  -8.506  1.00  0.00     0.164 HD
ENDROOT
BRANCH   1   5
ATOM      5  CA  LEU A   3      19.341  11.351  -6.146  1.00  0.00     0.171 C 
BRANCH   5   6
ATOM      6  N   LEU A   3      18.083  11.018  -5.537  1.00  0.00    -0.343 N 
ATOM      7  C   PHE A   2      16.889  11.746  -5.775  1.00  0.00     0.243 C 
ATOM      8  O   PHE A   2      16.911  12.799  -6.469  1.00  0.00    -0.273 OA
ATOM      9  H   UNL     1      18.154  10.384  -4.718  1.00  0.00     0.164 HD
BRANCH   7  10
ATOM     10  CA  PHE A   2      15.650  11.314  -5.063  1.00  0.00     0.175 C 
BRANCH  10  11
ATOM     11  N   PHE A   2      14.462  11.747  -5.785  1.00  0.00    -0.343 N 
ATOM     12  C   HIS A   1      13.910  13.048  -5.625  1.00  0.00     0.237 C 
ATOM     13  O   HIS A   1      14.441  13.861  -4.820  1.00  0.00    -0.273 OA
ATOM     14  H   UNL     1      13.980  11.052  -6.397  1.00  0.00     0.164 HD
BRANCH  12  15
ATOM     15  CA  HIS A   1      12.660  13.424  -6.385  1.00  0.00     0.147 C 
BRANCH  15  16
ATOM     16  N   HIS A   1      12.483  14.877  -6.386  1.00  0.00    -0.320 NA
ATOM     17  H   UNL     1      11.598  15.106  -6.894  1.00  0.00     0.119 HD
ATOM     18  H   UNL     1      12.323  15.193  -5.401  1.00  0.00     0.119 HD
ENDBRANCH  15  16
BRANCH  15  19
ATOM     19  CB  HIS A   1      12.670  12.890  -7.839  1.00  0.00     0.086 C 
BRANCH  19  20
ATOM     20  CG  HIS A   1      13.914  13.259  -8.596  1.00  0.00     0.060 A 
ATOM     21  ND1 HIS A   1      14.899  12.388  -8.895  1.00  0.00    -0.242 NA
ATOM     22  CD2 HIS A   1      14.241  14.513  -9.064  1.00  0.00     0.107 A 
ATOM     23  CE1 HIS A   1      15.811  13.140  -9.547  1.00  0.00     0.196 A 
ATOM     24  NE2 HIS A   1      15.438  14.429  -9.663  1.00  0.00    -0.351 N 
ATOM     25  H   UNL     1      15.971  15.201 -10.120  1.00  0.00     0.167 HD
ENDBRANCH  19  20
ENDBRANCH  15  19
ENDBRANCH  12  15
ENDBRANCH  10  11
BRANCH  10  26
ATOM     26  CB  PHE A   2      15.602   9.775  -4.890  1.00  0.00     0.070 C 
BRANCH  26  27
ATOM     27  CG  PHE A   2      14.431   9.295  -4.097  1.00  0.00    -0.045 A 
ATOM     28  CD1 PHE A   2      13.896  10.050  -3.036  1.00  0.00     0.004 A 
ATOM     29  CD2 PHE A   2      13.962   7.992  -4.312  1.00  0.00     0.004 A 
ATOM     30  CE1 PHE A   2      12.866   9.536  -2.259  1.00  0.00     0.000 A 
ATOM     31  CE2 PHE A   2      12.938   7.477  -3.519  1.00  0.00     0.000 A 
ATOM     32  CZ  PHE A   2      12.385   8.252  -2.499  1.00  0.00     0.000 A 
ENDBRANCH  26  27
ENDBRANCH  10  26
ENDBRANCH   7  10
ENDBRANCH   5   6
BRANCH   5  33
ATOM     33  CB  LEU A   3      20.164  12.251  -5.216  1.00  0.00     0.038 C 
BRANCH  33  34
ATOM     34  CG  LEU A   3      20.417  11.679  -3.791  1.00  0.00    -0.015 C 
ATOM     35  CD1 LEU A   3      21.819  12.066  -3.316  1.00  0.00     0.007 C 
ATOM     36  CD2 LEU A   3      19.369  12.169  -2.781  1.00  0.00     0.007 C 
ENDBRANCH  33  34
ENDBRANCH   5  33
ENDBRANCH   1   5
BRANCH   3  37
ATOM     37  CA  ALA A   4      21.343   8.746  -8.158  1.00  0.00     0.168 C 
ATOM     38  CB  ALA A   4      20.665   8.005  -9.301  1.00  0.00     0.041 C 
BRANCH  37  39
ATOM     39  C   ALA A   4      22.711   9.197  -8.534  1.00  0.00     0.242 C 
ATOM     40  N   ARG A   5      23.817   8.707  -7.791  1.00  0.00    -0.343 N 
ATOM     41  O   ALA A   4      22.877  10.026  -9.470  1.00  0.00    -0.273 OA
ATOM     42  H   UNL     1      23.662   7.985  -7.049  1.00  0.00     0.164 HD
BRANCH  40  43
ATOM     43  CA  ARG A   5      25.181   9.117  -8.072  1.00  0.00     0.171 C 
BRANCH  43  44
ATOM     44  C   ARG A   5      25.902   7.968  -8.686  1.00  0.00     0.243 C 
ATOM     45  N   ASN A   6      25.916   7.866 -10.103  1.00  0.00    -0.341 N 
ATOM     46  O   ARG A   5      26.450   7.087  -7.970  1.00  0.00    -0.273 OA
ATOM     47  H   UNL     1      25.496   8.651 -10.651  1.00  0.00     0.164 HD
BRANCH  45  48
ATOM     48  CA  ASN A   6      26.543   6.751 -10.804  1.00  0.00     0.201 C 
BRANCH  48  49
ATOM     49  C   ASN A   6      27.994   6.642 -10.417  1.00  0.00     0.326 C 
ATOM     50  O   ASN A   6      28.795   7.579 -10.677  1.00  0.00    -0.250 OA
BRANCH  49  51
ATOM     51  OXT ASN A   6      28.453   5.497  -9.772  1.00  0.00    -0.480 OA
ATOM     52  H   UNL     1      29.426   5.407  -9.504  1.00  0.00     0.296 HD
ENDBRANCH  49  51
ENDBRANCH  48  49
BRANCH  48  53
ATOM     53  CB  ASN A   6      26.424   6.946 -12.323  1.00  0.00     0.136 C 
BRANCH  53  54
ATOM     54  CG  ASN A   6      25.009   7.181 -12.772  1.00  0.00     0.220 C 
ATOM     55  ND2 ASN A   6      24.753   8.089 -13.834  1.00  0.00    -0.370 N 
ATOM     56  OD1 ASN A   6      24.051   6.563 -12.238  1.00  0.00    -0.275 OA
ATOM     57  H   UNL     1      23.775   8.258 -14.156  1.00  0.00     0.159 HD
ATOM     58  H   UNL     1      25.533   8.595 -14.309  1.00  0.00     0.159 HD
ENDBRANCH  53  54
ENDBRANCH  48  53
ENDBRANCH  45  48
ENDBRANCH  43  44
BRANCH  43  59
ATOM     59  CB  ARG A   5      25.856   9.600  -6.793  1.00  0.00     0.037 C 
BRANCH  59  60
ATOM     60  CG  ARG A   5      25.163  10.859  -6.272  1.00  0.00     0.024 C 
BRANCH  60  61
ATOM     61  CD  ARG A   5      25.838  11.391  -5.015  1.00  0.00     0.116 C 
BRANCH  61  62
ATOM     62  NE  ARG A   5      25.377  10.684  -3.823  1.00  0.00    -0.357 N 
ATOM     63  CZ  ARG A   5      25.468  11.279  -2.527  1.00  0.00     0.185 C 
ATOM     64  NH2 ARG A   5      26.105  12.541  -2.350  1.00  0.00    -0.370 N 
ATOM     65  H   UNL     1      24.898   9.759  -3.921  1.00  0.00     0.163 HD
ATOM     66  H   UNL     1      26.691  12.983  -3.091  1.00  0.00     0.159 HD
ATOM     67  H   UNL     1      26.081  13.007  -1.416  1.00  0.00     0.159 HD
BRANCH  63  68
ATOM     68  NH1 ARG A   5      24.957  10.679  -1.500  1.00  0.00    -0.270 NA
ATOM     69  H   UNL     1      24.474   9.757  -1.584  1.00  0.00     0.191 HD
ENDBRANCH  63  68
ENDBRANCH  61  62
ENDBRANCH  60  61
ENDBRANCH  59  60
ENDBRANCH  43  59
ENDBRANCH  40  43
ENDBRANCH  37  39
ENDBRANCH   3  37
TORSDOF 26
