REMARK SMILES CC(C)C[C@H](NC(=O)[C@H](CC(N)=O)NC(=O)[C@@H](N)CO)C(=O)N[C@H](C(=O)N[C@@H](CCCNC(=N)N)C(=O)N[C@@H](CC(N)=O)C(=O)O)C(C)C
REMARK SMILES IDX 21 1 22 2 23 3 5 5 6 6 7 7 8 8 9 10 14 11 15 12 16 13 17 15
REMARK SMILES IDX 18 16 19 19 20 20 10 22 11 23 12 24 13 25 4 28 2 29 1 30
REMARK SMILES IDX 3 31 24 32 25 33 27 34 26 35 28 37 36 38 38 39 37 40 39 42
REMARK SMILES IDX 44 43 45 44 46 45 40 47 41 48 42 49 43 50 29 53 30 54 31 55
REMARK SMILES IDX 32 56 33 57 35 58 34 62 47 64 48 65 49 66
REMARK H PARENT 23 4 6 9 14 14 18 17 18 18 20 21 12 26 12 27 27 36 38 41 46 46
REMARK H PARENT 42 51 42 52 32 59 35 60 35 61 34 63
ROOT
ATOM      1  C   LEU A   3       1.085  -0.481  -0.035  1.00  0.00     0.243 C 
ATOM      2  O   LEU A   3       1.147  -1.419  -0.877  1.00  0.00    -0.273 OA
ATOM      3  N   VAL A   4      -0.086  -0.330   0.785  1.00  0.00    -0.342 N 
ATOM      4  H   UNL     1      -0.106   0.443   1.487  1.00  0.00     0.164 HD
ENDROOT
BRANCH   1   5
ATOM      5  CA  LEU A   3       2.254   0.460   0.140  1.00  0.00     0.171 C 
BRANCH   5   6
ATOM      6  N   LEU A   3       3.447  -0.034  -0.557  1.00  0.00    -0.342 N 
ATOM      7  C   ASN A   2       4.756  -0.009   0.027  1.00  0.00     0.243 C 
ATOM      8  O   ASN A   2       4.968   0.645   1.086  1.00  0.00    -0.273 OA
ATOM      9  H   UNL     1       3.345  -0.465  -1.502  1.00  0.00     0.164 HD
BRANCH   7  10
ATOM     10  CA  ASN A   2       5.864  -0.811  -0.607  1.00  0.00     0.180 C 
BRANCH  10  11
ATOM     11  N   ASN A   2       7.166  -0.454  -0.031  1.00  0.00    -0.342 N 
ATOM     12  C   SER A   1       7.999   0.574  -0.587  1.00  0.00     0.239 C 
ATOM     13  O   SER A   1       7.641   1.188  -1.630  1.00  0.00    -0.273 OA
ATOM     14  H   UNL     1       7.427  -0.847   0.901  1.00  0.00     0.164 HD
BRANCH  12  15
ATOM     15  CA  SER A   1       9.286   0.955   0.098  1.00  0.00     0.167 C 
BRANCH  15  16
ATOM     16  N   SER A   1      10.365   1.048  -0.888  1.00  0.00    -0.318 NA
ATOM     17  H   UNL     1      10.494   0.106  -1.325  1.00  0.00     0.119 HD
ATOM     18  H   UNL     1      11.258   1.254  -0.383  1.00  0.00     0.119 HD
ENDBRANCH  15  16
BRANCH  15  19
ATOM     19  CB  SER A   1       9.122   2.294   0.827  1.00  0.00     0.184 C 
BRANCH  19  20
ATOM     20  OG  SER A   1       8.127   2.189   1.810  1.00  0.00    -0.394 OA
ATOM     21  H   UNL     1       8.052   3.088   2.224  1.00  0.00     0.210 HD
ENDBRANCH  19  20
ENDBRANCH  15  19
ENDBRANCH  12  15
ENDBRANCH  10  11
BRANCH  10  22
ATOM     22  CB  ASN A   2       5.610  -2.329  -0.489  1.00  0.00     0.134 C 
BRANCH  22  23
ATOM     23  CG  ASN A   2       5.490  -2.809   0.932  1.00  0.00     0.220 C 
ATOM     24  ND2 ASN A   2       4.250  -2.698   1.633  1.00  0.00    -0.370 N 
ATOM     25  OD1 ASN A   2       6.487  -3.325   1.506  1.00  0.00    -0.275 OA
ATOM     26  H   UNL     1       4.171  -3.027   2.621  1.00  0.00     0.159 HD
ATOM     27  H   UNL     1       3.401  -2.308   1.163  1.00  0.00     0.159 HD
ENDBRANCH  22  23
ENDBRANCH  10  22
ENDBRANCH   7  10
ENDBRANCH   5   6
BRANCH   5  28
ATOM     28  CB  LEU A   3       1.920   1.922  -0.250  1.00  0.00     0.038 C 
BRANCH  28  29
ATOM     29  CG  LEU A   3       1.837   2.296  -1.757  1.00  0.00    -0.015 C 
ATOM     30  CD1 LEU A   3       0.958   1.354  -2.589  1.00  0.00     0.007 C 
ATOM     31  CD2 LEU A   3       3.213   2.496  -2.411  1.00  0.00     0.007 C 
ENDBRANCH  28  29
ENDBRANCH   5  28
ENDBRANCH   1   5
BRANCH   3  32
ATOM     32  CA  VAL A   4      -1.215  -1.268   0.734  1.00  0.00     0.174 C 
BRANCH  32  33
ATOM     33  C   VAL A   4      -2.504  -0.521   0.500  1.00  0.00     0.243 C 
ATOM     34  N   ARG A   5      -3.454  -1.016  -0.458  1.00  0.00    -0.343 N 
ATOM     35  O   VAL A   4      -2.749   0.529   1.155  1.00  0.00    -0.273 OA
ATOM     36  H   UNL     1      -3.213  -1.872  -1.005  1.00  0.00     0.164 HD
BRANCH  34  37
ATOM     37  CA  ARG A   5      -4.734  -0.358  -0.737  1.00  0.00     0.171 C 
BRANCH  37  38
ATOM     38  C   ARG A   5      -5.858  -1.323  -0.469  1.00  0.00     0.243 C 
ATOM     39  N   ASN A   6      -6.983  -0.914   0.325  1.00  0.00    -0.341 N 
ATOM     40  O   ARG A   5      -5.816  -2.484  -0.964  1.00  0.00    -0.273 OA
ATOM     41  H   UNL     1      -7.060   0.089   0.606  1.00  0.00     0.164 HD
BRANCH  39  42
ATOM     42  CA  ASN A   6      -8.027  -1.843   0.771  1.00  0.00     0.201 C 
BRANCH  42  43
ATOM     43  C   ASN A   6      -9.328  -1.485   0.115  1.00  0.00     0.326 C 
ATOM     44  O   ASN A   6      -9.815  -0.329   0.251  1.00  0.00    -0.250 OA
BRANCH  43  45
ATOM     45  OXT ASN A   6     -10.002  -2.434  -0.647  1.00  0.00    -0.480 OA
ATOM     46  H   UNL     1     -10.880  -2.208  -1.099  1.00  0.00     0.296 HD
ENDBRANCH  43  45
ENDBRANCH  42  43
BRANCH  42  47
ATOM     47  CB  ASN A   6      -8.164  -1.795   2.300  1.00  0.00     0.136 C 
BRANCH  47  48
ATOM     48  CG  ASN A   6      -6.895  -2.239   2.968  1.00  0.00     0.220 C 
ATOM     49  ND2 ASN A   6      -6.596  -3.627   3.105  1.00  0.00    -0.370 N 
ATOM     50  OD1 ASN A   6      -6.070  -1.381   3.379  1.00  0.00    -0.275 OA
ATOM     51  H   UNL     1      -7.265  -4.350   2.755  1.00  0.00     0.159 HD
ATOM     52  H   UNL     1      -5.703  -3.932   3.551  1.00  0.00     0.159 HD
ENDBRANCH  47  48
ENDBRANCH  42  47
ENDBRANCH  39  42
ENDBRANCH  37  38
BRANCH  37  53
ATOM     53  CB  ARG A   5      -4.781   0.119  -2.201  1.00  0.00     0.037 C 
BRANCH  53  54
ATOM     54  CG  ARG A   5      -3.767   1.238  -2.507  1.00  0.00     0.024 C 
BRANCH  54  55
ATOM     55  CD  ARG A   5      -4.199   2.599  -1.939  1.00  0.00     0.116 C 
BRANCH  55  56
ATOM     56  NE  ARG A   5      -3.311   3.661  -2.419  1.00  0.00    -0.357 N 
ATOM     57  CZ  ARG A   5      -1.991   3.925  -1.910  1.00  0.00     0.185 C 
ATOM     58  NH2 ARG A   5      -1.217   4.976  -2.489  1.00  0.00    -0.370 N 
ATOM     59  H   UNL     1      -3.686   4.301  -3.156  1.00  0.00     0.163 HD
ATOM     60  H   UNL     1      -1.588   5.526  -3.296  1.00  0.00     0.159 HD
ATOM     61  H   UNL     1      -0.265   5.198  -2.124  1.00  0.00     0.159 HD
BRANCH  57  62
ATOM     62  NH1 ARG A   5      -1.492   3.250  -0.921  1.00  0.00    -0.270 NA
ATOM     63  H   UNL     1      -1.991   2.475  -0.436  1.00  0.00     0.191 HD
ENDBRANCH  57  62
ENDBRANCH  55  56
ENDBRANCH  54  55
ENDBRANCH  53  54
ENDBRANCH  37  53
ENDBRANCH  34  37
ENDBRANCH  32  33
BRANCH  32  64
ATOM     64  CB  VAL A   4      -1.278  -2.164   2.002  1.00  0.00     0.015 C 
ATOM     65  CG1 VAL A   4      -1.496  -1.375   3.305  1.00  0.00     0.010 C 
ATOM     66  CG2 VAL A   4      -0.018  -3.034   2.121  1.00  0.00     0.010 C 
ENDBRANCH  32  64
ENDBRANCH   3  32
TORSDOF 27
