REMARK SMILES CC(C)C[C@H](NC(=O)[C@H](Cc1ccccc1)NC(=O)[C@@H](N)CO)C(=O)N[C@@H](CC(N)=O)C(=O)N[C@@H](CCCNC(=N)N)C(=O)N[C@@H](CCC(N)=O)C(=O)O
REMARK SMILES IDX 24 1 25 2 26 3 5 5 6 6 7 7 8 8 9 10 17 11 18 12 19 13 20 15
REMARK SMILES IDX 21 16 22 19 23 20 10 22 11 23 12 24 16 25 13 26 15 27 14 28
REMARK SMILES IDX 4 29 2 30 1 31 3 32 27 33 32 34 34 35 33 36 35 38 43 39
REMARK SMILES IDX 45 40 44 41 46 43 52 44 53 45 54 46 47 48 48 49 49 50 50 51
REMARK SMILES IDX 51 52 36 55 37 56 38 57 39 58 40 59 42 60 41 64 28 66 29 67
REMARK SMILES IDX 30 68 31 69
REMARK H PARENT 26 4 6 9 17 14 21 17 21 18 23 21 34 37 45 42 54 47 50 53 50 54
REMARK H PARENT 39 61 42 62 42 63 41 65 30 70 30 71
ROOT
ATOM      1  C   LEU A   3      20.054  10.081  -6.477  1.00  0.00     0.243 C 
ATOM      2  O   LEU A   3      20.167   9.158  -5.624  1.00  0.00    -0.273 OA
ATOM      3  N   ASN A   4      20.566   9.910  -7.787  1.00  0.00    -0.342 N 
ATOM      4  H   UNL     1      20.403  10.652  -8.506  1.00  0.00     0.164 HD
ENDROOT
BRANCH   1   5
ATOM      5  CA  LEU A   3      19.341  11.352  -6.147  1.00  0.00     0.171 C 
BRANCH   5   6
ATOM      6  N   LEU A   3      18.083  11.020  -5.538  1.00  0.00    -0.343 N 
ATOM      7  C   PHE A   2      16.887  11.745  -5.776  1.00  0.00     0.243 C 
ATOM      8  O   PHE A   2      16.905  12.796  -6.475  1.00  0.00    -0.273 OA
ATOM      9  H   UNL     1      18.155  10.386  -4.719  1.00  0.00     0.164 HD
BRANCH   7  10
ATOM     10  CA  PHE A   2      15.651  11.313  -5.057  1.00  0.00     0.175 C 
BRANCH  10  11
ATOM     11  N   PHE A   2      14.454  11.739  -5.769  1.00  0.00    -0.343 N 
ATOM     12  C   SER A   1      13.914  13.049  -5.636  1.00  0.00     0.239 C 
ATOM     13  O   SER A   1      14.449  13.868  -4.838  1.00  0.00    -0.273 OA
ATOM     14  H   UNL     1      13.869  10.999  -6.214  1.00  0.00     0.164 HD
BRANCH  12  15
ATOM     15  CA  SER A   1      12.654  13.411  -6.385  1.00  0.00     0.167 C 
BRANCH  15  16
ATOM     16  N   SER A   1      12.468  14.864  -6.382  1.00  0.00    -0.318 NA
ATOM     17  H   UNL     1      12.337  15.179  -5.393  1.00  0.00     0.119 HD
ATOM     18  H   UNL     1      11.565  15.088  -6.857  1.00  0.00     0.119 HD
ENDBRANCH  15  16
BRANCH  15  19
ATOM     19  CB  SER A   1      12.696  12.894  -7.842  1.00  0.00     0.184 C 
BRANCH  19  20
ATOM     20  OG  SER A   1      11.440  13.036  -8.447  1.00  0.00    -0.394 OA
ATOM     21  H   UNL     1      11.454  13.890  -8.953  1.00  0.00     0.210 HD
ENDBRANCH  19  20
ENDBRANCH  15  19
ENDBRANCH  12  15
ENDBRANCH  10  11
BRANCH  10  22
ATOM     22  CB  PHE A   2      15.610   9.773  -4.881  1.00  0.00     0.070 C 
BRANCH  22  23
ATOM     23  CG  PHE A   2      14.435   9.292  -4.092  1.00  0.00    -0.045 A 
ATOM     24  CD1 PHE A   2      13.898  10.048  -3.033  1.00  0.00     0.004 A 
ATOM     25  CD2 PHE A   2      13.964   7.991  -4.310  1.00  0.00     0.004 A 
ATOM     26  CE1 PHE A   2      12.866   9.535  -2.258  1.00  0.00     0.000 A 
ATOM     27  CE2 PHE A   2      12.937   7.477  -3.520  1.00  0.00     0.000 A 
ATOM     28  CZ  PHE A   2      12.384   8.252  -2.500  1.00  0.00     0.000 A 
ENDBRANCH  22  23
ENDBRANCH  10  22
ENDBRANCH   7  10
ENDBRANCH   5   6
BRANCH   5  29
ATOM     29  CB  LEU A   3      20.164  12.251  -5.216  1.00  0.00     0.038 C 
BRANCH  29  30
ATOM     30  CG  LEU A   3      20.417  11.679  -3.791  1.00  0.00    -0.015 C 
ATOM     31  CD1 LEU A   3      21.819  12.066  -3.317  1.00  0.00     0.007 C 
ATOM     32  CD2 LEU A   3      19.369  12.169  -2.781  1.00  0.00     0.007 C 
ENDBRANCH  29  30
ENDBRANCH   5  29
ENDBRANCH   1   5
BRANCH   3  33
ATOM     33  CA  ASN A   4      21.346   8.744  -8.159  1.00  0.00     0.180 C 
BRANCH  33  34
ATOM     34  C   ASN A   4      22.713   9.203  -8.529  1.00  0.00     0.243 C 
ATOM     35  N   ARG A   5      23.819   8.708  -7.789  1.00  0.00    -0.343 N 
ATOM     36  O   ASN A   4      22.880  10.032  -9.466  1.00  0.00    -0.273 OA
ATOM     37  H   UNL     1      23.662   7.983  -7.051  1.00  0.00     0.164 HD
BRANCH  35  38
ATOM     38  CA  ARG A   5      25.183   9.117  -8.069  1.00  0.00     0.171 C 
BRANCH  38  39
ATOM     39  C   ARG A   5      25.902   7.967  -8.684  1.00  0.00     0.243 C 
ATOM     40  N   GLN A   6      25.925   7.877 -10.100  1.00  0.00    -0.341 N 
ATOM     41  O   ARG A   5      26.445   7.081  -7.970  1.00  0.00    -0.273 OA
ATOM     42  H   UNL     1      25.585   8.705 -10.634  1.00  0.00     0.164 HD
BRANCH  40  43
ATOM     43  CA  GLN A   6      26.541   6.767 -10.815  1.00  0.00     0.192 C 
BRANCH  43  44
ATOM     44  C   GLN A   6      27.990   6.644 -10.425  1.00  0.00     0.326 C 
ATOM     45  O   GLN A   6      28.797   7.577 -10.677  1.00  0.00    -0.250 OA
BRANCH  44  46
ATOM     46  OXT GLN A   6      28.439   5.492  -9.787  1.00  0.00    -0.480 OA
ATOM     47  H   UNL     1      29.411   5.393  -9.518  1.00  0.00     0.296 HD
ENDBRANCH  44  46
ENDBRANCH  43  44
BRANCH  43  48
ATOM     48  CB  GLN A   6      26.424   6.986 -12.334  1.00  0.00     0.047 C 
BRANCH  48  49
ATOM     49  CG  GLN A   6      24.966   7.135 -12.817  1.00  0.00     0.102 C 
BRANCH  49  50
ATOM     50  CD  GLN A   6      24.561   8.562 -13.053  1.00  0.00     0.217 C 
ATOM     51  NE2 GLN A   6      25.180   9.328 -14.086  1.00  0.00    -0.370 N 
ATOM     52  OE1 GLN A   6      23.654   9.082 -12.350  1.00  0.00    -0.275 OA
ATOM     53  H   UNL     1      25.912   8.904 -14.699  1.00  0.00     0.159 HD
ATOM     54  H   UNL     1      24.899  10.321 -14.247  1.00  0.00     0.159 HD
ENDBRANCH  49  50
ENDBRANCH  48  49
ENDBRANCH  43  48
ENDBRANCH  40  43
ENDBRANCH  38  39
BRANCH  38  55
ATOM     55  CB  ARG A   5      25.856   9.599  -6.790  1.00  0.00     0.037 C 
BRANCH  55  56
ATOM     56  CG  ARG A   5      25.163  10.857  -6.269  1.00  0.00     0.024 C 
BRANCH  56  57
ATOM     57  CD  ARG A   5      25.838  11.390  -5.013  1.00  0.00     0.116 C 
BRANCH  57  58
ATOM     58  NE  ARG A   5      25.377  10.686  -3.819  1.00  0.00    -0.357 N 
ATOM     59  CZ  ARG A   5      25.469  11.281  -2.526  1.00  0.00     0.185 C 
ATOM     60  NH2 ARG A   5      26.107  12.546  -2.352  1.00  0.00    -0.370 N 
ATOM     61  H   UNL     1      24.894   9.763  -3.911  1.00  0.00     0.163 HD
ATOM     62  H   UNL     1      26.080  13.024  -1.423  1.00  0.00     0.159 HD
ATOM     63  H   UNL     1      26.696  12.982  -3.093  1.00  0.00     0.159 HD
BRANCH  59  64
ATOM     64  NH1 ARG A   5      24.954  10.672  -1.506  1.00  0.00    -0.270 NA
ATOM     65  H   UNL     1      24.995  11.077  -0.544  1.00  0.00     0.191 HD
ENDBRANCH  59  64
ENDBRANCH  57  58
ENDBRANCH  56  57
ENDBRANCH  55  56
ENDBRANCH  38  55
ENDBRANCH  35  38
ENDBRANCH  33  34
BRANCH  33  66
ATOM     66  CB  ASN A   4      20.659   8.002  -9.308  1.00  0.00     0.134 C 
BRANCH  66  67
ATOM     67  CG  ASN A   4      21.425   6.782  -9.748  1.00  0.00     0.220 C 
ATOM     68  ND2 ASN A   4      21.647   6.530 -11.135  1.00  0.00    -0.370 N 
ATOM     69  OD1 ASN A   4      21.822   5.945  -8.894  1.00  0.00    -0.275 OA
ATOM     70  H   UNL     1      21.325   7.206 -11.862  1.00  0.00     0.159 HD
ATOM     71  H   UNL     1      22.121   5.651 -11.439  1.00  0.00     0.159 HD
ENDBRANCH  66  67
ENDBRANCH  33  66
ENDBRANCH   3  33
TORSDOF 29
