REMARK SMILES CC(C)C[C@H](NC(=O)[C@H](CC(N)=O)NC(=O)[C@H](Cc1ccccc1)NC(=O)[C@@H](N)CO)C(=O)N[C@@H](Cc1c[nH]cn1)C(=O)N[C@@H](CC(N)=O)C(=O)O
REMARK SMILES IDX 7 1 8 2 6 3 9 5 14 6 15 7 16 8 17 10 25 11 26 12 27 13 28 15
REMARK SMILES IDX 29 16 30 19 31 20 18 22 19 23 20 24 24 25 21 26 23 27 22 28
REMARK SMILES IDX 10 29 11 30 12 31 13 32 5 35 32 36 34 37 33 38 35 40 42 41
REMARK SMILES IDX 44 42 43 43 45 45 50 46 51 47 52 48 46 50 47 51 48 52 49 53
REMARK SMILES IDX 36 56 37 57 41 58 38 59 40 60 39 61 4 63 2 64 1 65 3 66
REMARK H PARENT 6 4 14 9 25 14 29 17 29 18 31 21 12 33 12 34 34 39 44 44 52 49
REMARK H PARENT 48 54 48 55 39 62
ROOT
ATOM      1  C   ASN A   3      20.050  10.095  -6.460  1.00  0.00     0.243 C 
ATOM      2  O   ASN A   3      20.168   9.182  -5.595  1.00  0.00    -0.273 OA
ATOM      3  N   LEU A   4      20.563   9.921  -7.771  1.00  0.00    -0.342 N 
ATOM      4  H   UNL     1      20.396  10.659  -8.493  1.00  0.00     0.164 HD
ENDROOT
BRANCH   1   5
ATOM      5  CA  ASN A   3      19.347  11.367  -6.131  1.00  0.00     0.180 C 
BRANCH   5   6
ATOM      6  N   ASN A   3      18.089  11.046  -5.507  1.00  0.00    -0.342 N 
ATOM      7  C   PHE A   2      16.887  11.750  -5.775  1.00  0.00     0.243 C 
ATOM      8  O   PHE A   2      16.903  12.793  -6.483  1.00  0.00    -0.273 OA
ATOM      9  H   UNL     1      18.164  10.488  -4.631  1.00  0.00     0.164 HD
BRANCH   7  10
ATOM     10  CA  PHE A   2      15.651  11.313  -5.060  1.00  0.00     0.175 C 
BRANCH  10  11
ATOM     11  N   PHE A   2      14.453  11.740  -5.770  1.00  0.00    -0.343 N 
ATOM     12  C   SER A   1      13.914  13.050  -5.636  1.00  0.00     0.239 C 
ATOM     13  O   SER A   1      14.449  13.868  -4.838  1.00  0.00    -0.273 OA
ATOM     14  H   UNL     1      13.865  11.000  -6.212  1.00  0.00     0.164 HD
BRANCH  12  15
ATOM     15  CA  SER A   1      12.654  13.411  -6.385  1.00  0.00     0.167 C 
BRANCH  15  16
ATOM     16  N   SER A   1      12.468  14.864  -6.382  1.00  0.00    -0.318 NA
ATOM     17  H   UNL     1      11.564  15.088  -6.857  1.00  0.00     0.119 HD
ATOM     18  H   UNL     1      12.337  15.180  -5.393  1.00  0.00     0.119 HD
ENDBRANCH  15  16
BRANCH  15  19
ATOM     19  CB  SER A   1      12.696  12.894  -7.842  1.00  0.00     0.184 C 
BRANCH  19  20
ATOM     20  OG  SER A   1      11.439  13.036  -8.447  1.00  0.00    -0.394 OA
ATOM     21  H   UNL     1      11.454  13.890  -8.953  1.00  0.00     0.210 HD
ENDBRANCH  19  20
ENDBRANCH  15  19
ENDBRANCH  12  15
ENDBRANCH  10  11
BRANCH  10  22
ATOM     22  CB  PHE A   2      15.613   9.774  -4.890  1.00  0.00     0.070 C 
BRANCH  22  23
ATOM     23  CG  PHE A   2      14.443   9.290  -4.091  1.00  0.00    -0.045 A 
ATOM     24  CD1 PHE A   2      13.903  10.047  -3.033  1.00  0.00     0.004 A 
ATOM     25  CD2 PHE A   2      13.968   7.990  -4.310  1.00  0.00     0.004 A 
ATOM     26  CE1 PHE A   2      12.869   9.536  -2.260  1.00  0.00     0.000 A 
ATOM     27  CE2 PHE A   2      12.939   7.477  -3.521  1.00  0.00     0.000 A 
ATOM     28  CZ  PHE A   2      12.386   8.252  -2.502  1.00  0.00     0.000 A 
ENDBRANCH  22  23
ENDBRANCH  10  22
ENDBRANCH   7  10
ENDBRANCH   5   6
BRANCH   5  29
ATOM     29  CB  ASN A   3      20.182  12.259  -5.201  1.00  0.00     0.134 C 
BRANCH  29  30
ATOM     30  CG  ASN A   3      20.400  11.674  -3.828  1.00  0.00     0.220 C 
ATOM     31  ND2 ASN A   3      19.500  11.977  -2.762  1.00  0.00    -0.370 N 
ATOM     32  OD1 ASN A   3      21.371  10.898  -3.620  1.00  0.00    -0.275 OA
ATOM     33  H   UNL     1      18.678  12.601  -2.920  1.00  0.00     0.159 HD
ATOM     34  H   UNL     1      19.647  11.564  -1.814  1.00  0.00     0.159 HD
ENDBRANCH  29  30
ENDBRANCH   5  29
ENDBRANCH   1   5
BRANCH   3  35
ATOM     35  CA  LEU A   4      21.349   8.760  -8.138  1.00  0.00     0.171 C 
BRANCH  35  36
ATOM     36  C   LEU A   4      22.714   9.219  -8.517  1.00  0.00     0.243 C 
ATOM     37  N   HIS A   5      23.823   8.738  -7.772  1.00  0.00    -0.342 N 
ATOM     38  O   LEU A   4      22.877  10.031  -9.469  1.00  0.00    -0.273 OA
ATOM     39  H   UNL     1      23.669   8.054  -6.996  1.00  0.00     0.164 HD
BRANCH  37  40
ATOM     40  CA  HIS A   5      25.186   9.138  -8.065  1.00  0.00     0.177 C 
BRANCH  40  41
ATOM     41  C   HIS A   5      25.899   7.978  -8.680  1.00  0.00     0.243 C 
ATOM     42  N   ASN A   6      25.911   7.870 -10.098  1.00  0.00    -0.340 N 
ATOM     43  O   HIS A   5      26.445   7.096  -7.964  1.00  0.00    -0.273 OA
ATOM     44  H   UNL     1      25.486   8.652 -10.647  1.00  0.00     0.164 HD
BRANCH  42  45
ATOM     45  CA  ASN A   6      26.540   6.755 -10.799  1.00  0.00     0.201 C 
BRANCH  45  46
ATOM     46  C   ASN A   6      27.990   6.644 -10.412  1.00  0.00     0.326 C 
ATOM     47  O   ASN A   6      28.794   7.579 -10.677  1.00  0.00    -0.250 OA
BRANCH  46  48
ATOM     48  OXT ASN A   6      28.447   5.502  -9.761  1.00  0.00    -0.480 OA
ATOM     49  H   UNL     1      29.420   5.411  -9.493  1.00  0.00     0.296 HD
ENDBRANCH  46  48
ENDBRANCH  45  46
BRANCH  45  50
ATOM     50  CB  ASN A   6      26.423   6.949 -12.320  1.00  0.00     0.136 C 
BRANCH  50  51
ATOM     51  CG  ASN A   6      25.010   7.181 -12.772  1.00  0.00     0.220 C 
ATOM     52  ND2 ASN A   6      24.753   8.090 -13.833  1.00  0.00    -0.370 N 
ATOM     53  OD1 ASN A   6      24.052   6.558 -12.243  1.00  0.00    -0.275 OA
ATOM     54  H   UNL     1      25.533   8.600 -14.305  1.00  0.00     0.159 HD
ATOM     55  H   UNL     1      23.775   8.256 -14.158  1.00  0.00     0.159 HD
ENDBRANCH  50  51
ENDBRANCH  45  50
ENDBRANCH  42  45
ENDBRANCH  40  41
BRANCH  40  56
ATOM     56  CB  HIS A   5      25.869   9.634  -6.791  1.00  0.00     0.093 C 
BRANCH  56  57
ATOM     57  CG  HIS A   5      25.171  10.843  -6.238  1.00  0.00     0.061 A 
ATOM     58  ND1 HIS A   5      24.521  10.867  -5.057  1.00  0.00    -0.242 NA
ATOM     59  CD2 HIS A   5      25.113  12.085  -6.831  1.00  0.00     0.107 A 
ATOM     60  CE1 HIS A   5      24.079  12.139  -4.959  1.00  0.00     0.196 A 
ATOM     61  NE2 HIS A   5      24.419  12.896  -6.018  1.00  0.00    -0.351 N 
ATOM     62  H   UNL     1      24.196  13.904  -6.172  1.00  0.00     0.167 HD
ENDBRANCH  56  57
ENDBRANCH  40  56
ENDBRANCH  37  40
ENDBRANCH  35  36
BRANCH  35  63
ATOM     63  CB  LEU A   4      20.656   8.000  -9.271  1.00  0.00     0.038 C 
BRANCH  63  64
ATOM     64  CG  LEU A   4      21.449   6.772  -9.768  1.00  0.00    -0.015 C 
ATOM     65  CD1 LEU A   4      21.764   5.780  -8.638  1.00  0.00     0.007 C 
ATOM     66  CD2 LEU A   4      20.662   6.067 -10.876  1.00  0.00     0.007 C 
ENDBRANCH  63  64
ENDBRANCH  35  63
ENDBRANCH   3  35
TORSDOF 25
