REMARK SMILES CC(C)C[C@H](NC(=O)CNC(=O)[C@@H](N)CO)C(=O)N[C@@H](C)C(=O)N[C@@H](CCCNC(=N)N)C(=O)N[C@@H](CC(N)=O)C(=O)O
REMARK SMILES IDX 17 1 18 2 19 3 5 5 6 6 7 7 8 8 9 10 10 11 11 12 12 13 13 15
REMARK SMILES IDX 14 16 15 19 16 20 4 22 2 23 1 24 3 25 20 26 21 27 22 28
REMARK SMILES IDX 24 29 23 30 25 32 33 33 35 34 34 35 36 37 41 38 42 39 43 40
REMARK SMILES IDX 37 42 38 43 39 44 40 45 26 48 27 49 28 50 29 51 30 52 32 53
REMARK SMILES IDX 31 57
REMARK H PARENT 19 4 6 9 10 14 14 17 14 18 16 21 24 31 35 36 43 41 39 46 39 47
REMARK H PARENT 29 54 32 55 32 56 31 58
ROOT
ATOM      1  C   LEU A   3      20.042  10.067  -6.469  1.00  0.00     0.243 C 
ATOM      2  O   LEU A   3      20.168   9.144  -5.618  1.00  0.00    -0.273 OA
ATOM      3  N   ALA A   4      20.563   9.911  -7.778  1.00  0.00    -0.343 N 
ATOM      4  H   UNL     1      20.402  10.658  -8.492  1.00  0.00     0.164 HD
ENDROOT
BRANCH   1   5
ATOM      5  CA  LEU A   3      19.309  11.323  -6.131  1.00  0.00     0.171 C 
BRANCH   5   6
ATOM      6  N   LEU A   3      18.033  10.979  -5.537  1.00  0.00    -0.343 N 
ATOM      7  C   GLY A   2      16.866  11.758  -5.739  1.00  0.00     0.240 C 
ATOM      8  O   GLY A   2      16.903  12.807  -6.441  1.00  0.00    -0.273 OA
ATOM      9  H   UNL     1      17.988  10.189  -4.853  1.00  0.00     0.164 HD
BRANCH   7  10
ATOM     10  CA  GLY A   2      15.630  11.333  -5.023  1.00  0.00     0.216 C 
BRANCH  10  11
ATOM     11  N   GLY A   2      14.437  11.726  -5.742  1.00  0.00    -0.346 N 
ATOM     12  C   SER A   1      13.905  13.043  -5.633  1.00  0.00     0.239 C 
ATOM     13  O   SER A   1      14.444  13.871  -4.846  1.00  0.00    -0.273 OA
ATOM     14  H   UNL     1      13.853  10.958  -6.140  1.00  0.00     0.164 HD
BRANCH  12  15
ATOM     15  CA  SER A   1      12.651  13.405  -6.386  1.00  0.00     0.167 C 
BRANCH  15  16
ATOM     16  N   SER A   1      12.468  14.859  -6.390  1.00  0.00    -0.318 NA
ATOM     17  H   UNL     1      12.299  15.173  -5.406  1.00  0.00     0.119 HD
ATOM     18  H   UNL     1      11.587  15.086  -6.905  1.00  0.00     0.119 HD
ENDBRANCH  15  16
BRANCH  15  19
ATOM     19  CB  SER A   1      12.700  12.882  -7.838  1.00  0.00     0.184 C 
BRANCH  19  20
ATOM     20  OG  SER A   1      11.446  13.034  -8.442  1.00  0.00    -0.394 OA
ATOM     21  H   UNL     1      11.557  12.754  -9.388  1.00  0.00     0.210 HD
ENDBRANCH  19  20
ENDBRANCH  15  19
ENDBRANCH  12  15
ENDBRANCH  10  11
ENDBRANCH   7  10
ENDBRANCH   5   6
BRANCH   5  22
ATOM     22  CB  LEU A   3      20.132  12.236  -5.211  1.00  0.00     0.038 C 
BRANCH  22  23
ATOM     23  CG  LEU A   3      20.405  11.668  -3.790  1.00  0.00    -0.015 C 
ATOM     24  CD1 LEU A   3      21.806  12.071  -3.322  1.00  0.00     0.007 C 
ATOM     25  CD2 LEU A   3      19.353  12.145  -2.782  1.00  0.00     0.007 C 
ENDBRANCH  22  23
ENDBRANCH   5  22
ENDBRANCH   1   5
BRANCH   3  26
ATOM     26  CA  ALA A   4      21.342   8.747  -8.156  1.00  0.00     0.168 C 
ATOM     27  CB  ALA A   4      20.663   8.008  -9.300  1.00  0.00     0.041 C 
BRANCH  26  28
ATOM     28  C   ALA A   4      22.710   9.198  -8.532  1.00  0.00     0.242 C 
ATOM     29  N   ARG A   5      23.817   8.707  -7.791  1.00  0.00    -0.343 N 
ATOM     30  O   ALA A   4      22.876  10.027  -9.469  1.00  0.00    -0.273 OA
ATOM     31  H   UNL     1      23.662   7.985  -7.050  1.00  0.00     0.164 HD
BRANCH  29  32
ATOM     32  CA  ARG A   5      25.181   9.117  -8.072  1.00  0.00     0.171 C 
BRANCH  32  33
ATOM     33  C   ARG A   5      25.901   7.968  -8.686  1.00  0.00     0.243 C 
ATOM     34  N   ASN A   6      25.916   7.866 -10.103  1.00  0.00    -0.341 N 
ATOM     35  O   ARG A   5      26.450   7.087  -7.970  1.00  0.00    -0.273 OA
ATOM     36  H   UNL     1      25.496   8.651 -10.651  1.00  0.00     0.164 HD
BRANCH  34  37
ATOM     37  CA  ASN A   6      26.543   6.751 -10.804  1.00  0.00     0.201 C 
BRANCH  37  38
ATOM     38  C   ASN A   6      27.994   6.642 -10.417  1.00  0.00     0.326 C 
ATOM     39  O   ASN A   6      28.795   7.579 -10.677  1.00  0.00    -0.250 OA
BRANCH  38  40
ATOM     40  OXT ASN A   6      28.453   5.497  -9.772  1.00  0.00    -0.480 OA
ATOM     41  H   UNL     1      29.426   5.407  -9.504  1.00  0.00     0.296 HD
ENDBRANCH  38  40
ENDBRANCH  37  38
BRANCH  37  42
ATOM     42  CB  ASN A   6      26.424   6.946 -12.323  1.00  0.00     0.136 C 
BRANCH  42  43
ATOM     43  CG  ASN A   6      25.009   7.181 -12.772  1.00  0.00     0.220 C 
ATOM     44  ND2 ASN A   6      24.753   8.089 -13.834  1.00  0.00    -0.370 N 
ATOM     45  OD1 ASN A   6      24.051   6.563 -12.238  1.00  0.00    -0.275 OA
ATOM     46  H   UNL     1      25.533   8.595 -14.309  1.00  0.00     0.159 HD
ATOM     47  H   UNL     1      23.775   8.258 -14.156  1.00  0.00     0.159 HD
ENDBRANCH  42  43
ENDBRANCH  37  42
ENDBRANCH  34  37
ENDBRANCH  32  33
BRANCH  32  48
ATOM     48  CB  ARG A   5      25.855   9.600  -6.793  1.00  0.00     0.037 C 
BRANCH  48  49
ATOM     49  CG  ARG A   5      25.162  10.857  -6.270  1.00  0.00     0.024 C 
BRANCH  49  50
ATOM     50  CD  ARG A   5      25.838  11.390  -5.014  1.00  0.00     0.116 C 
BRANCH  50  51
ATOM     51  NE  ARG A   5      25.377  10.686  -3.820  1.00  0.00    -0.357 N 
ATOM     52  CZ  ARG A   5      25.469  11.281  -2.527  1.00  0.00     0.185 C 
ATOM     53  NH2 ARG A   5      26.107  12.546  -2.352  1.00  0.00    -0.370 N 
ATOM     54  H   UNL     1      24.893   9.763  -3.911  1.00  0.00     0.163 HD
ATOM     55  H   UNL     1      26.696  12.982  -3.094  1.00  0.00     0.159 HD
ATOM     56  H   UNL     1      26.080  13.024  -1.424  1.00  0.00     0.159 HD
BRANCH  52  57
ATOM     57  NH1 ARG A   5      24.954  10.672  -1.507  1.00  0.00    -0.270 NA
ATOM     58  H   UNL     1      24.996  11.077  -0.545  1.00  0.00     0.191 HD
ENDBRANCH  52  57
ENDBRANCH  50  51
ENDBRANCH  49  50
ENDBRANCH  48  49
ENDBRANCH  32  48
ENDBRANCH  29  32
ENDBRANCH  26  28
ENDBRANCH   3  26
TORSDOF 24
