REMARK SMILES CC(C)C[C@H](NC(=O)[C@@H]1CCCN1C(=O)[C@H](Cc1c[nH]cn1)NC(=O)[C@@H](N)CO)C(=O)N[C@@H](CCCNC(=N)N)C(=O)N[C@@H](CC(N)=O)C(=O)O
REMARK SMILES IDX 7 1 8 2 6 3 9 5 13 6 12 7 10 8 11 9 14 10 15 11 16 12 23 13
REMARK SMILES IDX 24 14 25 15 26 17 27 18 28 21 29 22 17 24 18 25 22 26 19 27
REMARK SMILES IDX 21 28 20 29 5 31 30 32 32 33 31 34 33 36 41 37 43 38 42 39
REMARK SMILES IDX 44 41 49 42 50 43 51 44 45 46 46 47 47 48 48 49 34 52 35 53
REMARK SMILES IDX 36 54 37 55 38 56 40 57 39 61 4 63 2 64 1 65 3 66
REMARK H PARENT 6 4 23 16 27 19 27 20 29 23 20 30 32 35 43 40 51 45 47 50
REMARK H PARENT 47 51 37 58 40 59 40 60 39 62
ROOT
ATOM      1  C   PRO A   3      20.007  10.090  -6.440  1.00  0.00     0.243 C 
ATOM      2  O   PRO A   3      20.155   9.185  -5.574  1.00  0.00    -0.273 OA
ATOM      3  N   LEU A   4      20.547   9.933  -7.749  1.00  0.00    -0.343 N 
ATOM      4  H   UNL     1      20.375  10.676  -8.465  1.00  0.00     0.164 HD
ENDROOT
BRANCH   1   5
ATOM      5  CA  PRO A   3      19.259  11.347  -6.100  1.00  0.00     0.174 C 
ATOM      6  N   PRO A   3      17.983  11.022  -5.474  1.00  0.00    -0.329 N 
ATOM      7  CD  PRO A   3      17.989  11.298  -4.044  1.00  0.00     0.120 C 
ATOM      8  CB  PRO A   3      20.016  12.173  -5.062  1.00  0.00     0.037 C 
ATOM      9  CG  PRO A   3      19.384  11.820  -3.720  1.00  0.00     0.024 C 
BRANCH   6  10
ATOM     10  C   HIS A   2      16.868  10.502  -6.233  1.00  0.00     0.246 C 
ATOM     11  O   HIS A   2      17.089   9.985  -7.362  1.00  0.00    -0.272 OA
BRANCH  10  12
ATOM     12  CA  HIS A   2      15.421  10.637  -5.796  1.00  0.00     0.177 C 
BRANCH  12  13
ATOM     13  N   HIS A   2      15.236  10.363  -4.368  1.00  0.00    -0.342 N 
ATOM     14  C   SER A   1      15.368   9.040  -3.826  1.00  0.00     0.239 C 
ATOM     15  O   SER A   1      15.634   8.068  -4.586  1.00  0.00    -0.273 OA
ATOM     16  H   UNL     1      14.921  11.130  -3.732  1.00  0.00     0.164 HD
BRANCH  14  17
ATOM     17  CA  SER A   1      15.142   8.798  -2.355  1.00  0.00     0.167 C 
BRANCH  17  18
ATOM     18  N   SER A   1      13.849   8.140  -2.162  1.00  0.00    -0.318 NA
ATOM     19  H   UNL     1      13.105   8.747  -2.578  1.00  0.00     0.119 HD
ATOM     20  H   UNL     1      13.642   8.107  -1.137  1.00  0.00     0.119 HD
ENDBRANCH  17  18
BRANCH  17  21
ATOM     21  CB  SER A   1      16.276   7.938  -1.771  1.00  0.00     0.184 C 
BRANCH  21  22
ATOM     22  OG  SER A   1      16.185   7.886  -0.372  1.00  0.00    -0.394 OA
ATOM     23  H   UNL     1      15.624   7.099  -0.147  1.00  0.00     0.210 HD
ENDBRANCH  21  22
ENDBRANCH  17  21
ENDBRANCH  14  17
ENDBRANCH  12  13
BRANCH  12  24
ATOM     24  CB  HIS A   2      14.815  11.997  -6.210  1.00  0.00     0.093 C 
BRANCH  24  25
ATOM     25  CG  HIS A   2      15.513  13.185  -5.617  1.00  0.00     0.061 A 
ATOM     26  ND1 HIS A   2      15.175  13.752  -4.441  1.00  0.00    -0.242 NA
ATOM     27  CD2 HIS A   2      16.591  13.847  -6.162  1.00  0.00     0.107 A 
ATOM     28  CE1 HIS A   2      16.067  14.754  -4.296  1.00  0.00     0.196 A 
ATOM     29  NE2 HIS A   2      16.937  14.833  -5.321  1.00  0.00    -0.351 N 
ATOM     30  H   UNL     1      17.718  15.515  -5.436  1.00  0.00     0.167 HD
ENDBRANCH  24  25
ENDBRANCH  12  24
ENDBRANCH  10  12
ENDBRANCH   6  10
ENDBRANCH   1   5
BRANCH   3  31
ATOM     31  CA  LEU A   4      21.338   8.771  -8.126  1.00  0.00     0.171 C 
BRANCH  31  32
ATOM     32  C   LEU A   4      22.706   9.224  -8.512  1.00  0.00     0.243 C 
ATOM     33  N   ARG A   5      23.818   8.721  -7.784  1.00  0.00    -0.343 N 
ATOM     34  O   LEU A   4      22.870  10.036  -9.463  1.00  0.00    -0.273 OA
ATOM     35  H   UNL     1      23.663   8.031  -7.014  1.00  0.00     0.164 HD
BRANCH  33  36
ATOM     36  CA  ARG A   5      25.182   9.122  -8.073  1.00  0.00     0.171 C 
BRANCH  36  37
ATOM     37  C   ARG A   5      25.897   7.967  -8.686  1.00  0.00     0.243 C 
ATOM     38  N   ASN A   6      25.912   7.864 -10.103  1.00  0.00    -0.341 N 
ATOM     39  O   ARG A   5      26.446   7.087  -7.969  1.00  0.00    -0.273 OA
ATOM     40  H   UNL     1      25.488   8.647 -10.651  1.00  0.00     0.164 HD
BRANCH  38  41
ATOM     41  CA  ASN A   6      26.541   6.751 -10.804  1.00  0.00     0.201 C 
BRANCH  41  42
ATOM     42  C   ASN A   6      27.992   6.642 -10.415  1.00  0.00     0.326 C 
ATOM     43  O   ASN A   6      28.794   7.579 -10.677  1.00  0.00    -0.250 OA
BRANCH  42  44
ATOM     44  OXT ASN A   6      28.451   5.500  -9.767  1.00  0.00    -0.480 OA
ATOM     45  H   UNL     1      29.423   5.410  -9.498  1.00  0.00     0.296 HD
ENDBRANCH  42  44
ENDBRANCH  41  42
BRANCH  41  46
ATOM     46  CB  ASN A   6      26.424   6.947 -12.323  1.00  0.00     0.136 C 
BRANCH  46  47
ATOM     47  CG  ASN A   6      25.010   7.181 -12.773  1.00  0.00     0.220 C 
ATOM     48  ND2 ASN A   6      24.753   8.091 -13.833  1.00  0.00    -0.370 N 
ATOM     49  OD1 ASN A   6      24.053   6.558 -12.243  1.00  0.00    -0.275 OA
ATOM     50  H   UNL     1      23.775   8.258 -14.156  1.00  0.00     0.159 HD
ATOM     51  H   UNL     1      25.533   8.600 -14.306  1.00  0.00     0.159 HD
ENDBRANCH  46  47
ENDBRANCH  41  46
ENDBRANCH  38  41
ENDBRANCH  36  37
BRANCH  36  52
ATOM     52  CB  ARG A   5      25.861   9.605  -6.797  1.00  0.00     0.037 C 
BRANCH  52  53
ATOM     53  CG  ARG A   5      25.167  10.861  -6.272  1.00  0.00     0.024 C 
BRANCH  53  54
ATOM     54  CD  ARG A   5      25.842  11.391  -5.015  1.00  0.00     0.116 C 
BRANCH  54  55
ATOM     55  NE  ARG A   5      25.378  10.685  -3.823  1.00  0.00    -0.357 N 
ATOM     56  CZ  ARG A   5      25.468  11.279  -2.527  1.00  0.00     0.185 C 
ATOM     57  NH2 ARG A   5      26.106  12.541  -2.350  1.00  0.00    -0.370 N 
ATOM     58  H   UNL     1      24.904   9.757  -3.922  1.00  0.00     0.163 HD
ATOM     59  H   UNL     1      26.083  13.006  -1.415  1.00  0.00     0.159 HD
ATOM     60  H   UNL     1      26.694  12.982  -3.090  1.00  0.00     0.159 HD
BRANCH  56  61
ATOM     61  NH1 ARG A   5      24.958  10.678  -1.500  1.00  0.00    -0.270 NA
ATOM     62  H   UNL     1      24.477   9.755  -1.584  1.00  0.00     0.191 HD
ENDBRANCH  56  61
ENDBRANCH  54  55
ENDBRANCH  53  54
ENDBRANCH  52  53
ENDBRANCH  36  52
ENDBRANCH  33  36
ENDBRANCH  31  32
BRANCH  31  63
ATOM     63  CB  LEU A   4      20.648   8.006  -9.261  1.00  0.00     0.038 C 
BRANCH  63  64
ATOM     64  CG  LEU A   4      21.445   6.779  -9.762  1.00  0.00    -0.015 C 
ATOM     65  CD1 LEU A   4      21.761   5.784  -8.636  1.00  0.00     0.007 C 
ATOM     66  CD2 LEU A   4      20.662   6.074 -10.874  1.00  0.00     0.007 C 
ENDBRANCH  63  64
ENDBRANCH  31  63
ENDBRANCH   3  31
TORSDOF 26
