REMARK SMILES CC(C)C[C@H](NC(=O)[C@H](CC(N)=O)NC(=O)[C@H](Cc1ccccc1)NC(=O)[C@@H](N)CO)C(=O)N[C@@H](CCCNC(=N)N)C(=O)N[C@@H](CCCNC(=N)N)C(=O)O
REMARK SMILES IDX 32 1 33 2 34 3 5 5 6 6 7 7 8 8 9 10 14 11 15 12 16 13 17 15
REMARK SMILES IDX 25 16 26 17 27 18 28 20 29 21 30 24 31 25 18 27 19 28 20 29
REMARK SMILES IDX 24 30 21 31 23 32 22 33 10 34 11 35 12 36 13 37 4 40 2 41
REMARK SMILES IDX 1 42 3 43 35 44 43 45 45 46 44 47 46 49 54 50 55 51 56 52
REMARK SMILES IDX 47 54 48 55 49 56 50 57 51 58 53 59 52 63 36 65 37 66 38 67
REMARK SMILES IDX 39 68 40 69 42 70 41 74
REMARK H PARENT 34 4 6 9 14 14 25 19 29 22 29 23 31 26 12 38 12 39 45 48 56 53
REMARK H PARENT 50 60 53 61 53 62 52 64 39 71 42 72 42 73 41 75
ROOT
ATOM      1  C   LEU A   4      22.713   9.215  -8.519  1.00  0.00     0.243 C 
ATOM      2  O   LEU A   4      22.878  10.031  -9.467  1.00  0.00    -0.273 OA
ATOM      3  N   ARG A   5      23.821   8.720  -7.782  1.00  0.00    -0.343 N 
ATOM      4  H   UNL     1      23.665   8.030  -7.012  1.00  0.00     0.164 HD
ENDROOT
BRANCH   1   5
ATOM      5  CA  LEU A   4      21.347   8.759  -8.139  1.00  0.00     0.171 C 
BRANCH   5   6
ATOM      6  N   LEU A   4      20.562   9.921  -7.772  1.00  0.00    -0.342 N 
ATOM      7  C   ASN A   3      20.051  10.095  -6.459  1.00  0.00     0.243 C 
ATOM      8  O   ASN A   3      20.170   9.183  -5.594  1.00  0.00    -0.273 OA
ATOM      9  H   UNL     1      20.395  10.659  -8.494  1.00  0.00     0.164 HD
BRANCH   7  10
ATOM     10  CA  ASN A   3      19.347  11.367  -6.131  1.00  0.00     0.180 C 
BRANCH  10  11
ATOM     11  N   ASN A   3      18.089  11.044  -5.508  1.00  0.00    -0.342 N 
ATOM     12  C   PHE A   2      16.887  11.749  -5.775  1.00  0.00     0.243 C 
ATOM     13  O   PHE A   2      16.903  12.793  -6.483  1.00  0.00    -0.273 OA
ATOM     14  H   UNL     1      18.164  10.486  -4.632  1.00  0.00     0.164 HD
BRANCH  12  15
ATOM     15  CA  PHE A   2      15.651  11.313  -5.060  1.00  0.00     0.175 C 
BRANCH  15  16
ATOM     16  N   PHE A   2      14.453  11.740  -5.769  1.00  0.00    -0.343 N 
ATOM     17  C   SER A   1      13.915  13.051  -5.636  1.00  0.00     0.239 C 
ATOM     18  O   SER A   1      14.449  13.870  -4.839  1.00  0.00    -0.273 OA
ATOM     19  H   UNL     1      13.861  11.001  -6.208  1.00  0.00     0.164 HD
BRANCH  17  20
ATOM     20  CA  SER A   1      12.655  13.410  -6.383  1.00  0.00     0.167 C 
BRANCH  20  21
ATOM     21  N   SER A   1      12.467  14.863  -6.382  1.00  0.00    -0.318 NA
ATOM     22  H   UNL     1      11.581  15.087  -6.890  1.00  0.00     0.119 HD
ATOM     23  H   UNL     1      12.304  15.174  -5.396  1.00  0.00     0.119 HD
ENDBRANCH  20  21
BRANCH  20  24
ATOM     24  CB  SER A   1      12.695  12.894  -7.842  1.00  0.00     0.184 C 
BRANCH  24  25
ATOM     25  OG  SER A   1      11.440  13.037  -8.449  1.00  0.00    -0.394 OA
ATOM     26  H   UNL     1      10.855  12.333  -8.065  1.00  0.00     0.210 HD
ENDBRANCH  24  25
ENDBRANCH  20  24
ENDBRANCH  17  20
ENDBRANCH  15  16
BRANCH  15  27
ATOM     27  CB  PHE A   2      15.612   9.773  -4.891  1.00  0.00     0.070 C 
BRANCH  27  28
ATOM     28  CG  PHE A   2      14.442   9.290  -4.091  1.00  0.00    -0.045 A 
ATOM     29  CD1 PHE A   2      13.903  10.047  -3.033  1.00  0.00     0.004 A 
ATOM     30  CD2 PHE A   2      13.968   7.990  -4.310  1.00  0.00     0.004 A 
ATOM     31  CE1 PHE A   2      12.869   9.536  -2.260  1.00  0.00     0.000 A 
ATOM     32  CE2 PHE A   2      12.939   7.477  -3.521  1.00  0.00     0.000 A 
ATOM     33  CZ  PHE A   2      12.386   8.252  -2.502  1.00  0.00     0.000 A 
ENDBRANCH  27  28
ENDBRANCH  15  27
ENDBRANCH  12  15
ENDBRANCH  10  11
BRANCH  10  34
ATOM     34  CB  ASN A   3      20.177  12.264  -5.201  1.00  0.00     0.134 C 
BRANCH  34  35
ATOM     35  CG  ASN A   3      20.422  11.674  -3.834  1.00  0.00     0.220 C 
ATOM     36  ND2 ASN A   3      21.597  10.906  -3.576  1.00  0.00    -0.370 N 
ATOM     37  OD1 ASN A   3      19.585  11.861  -2.910  1.00  0.00    -0.275 OA
ATOM     38  H   UNL     1      22.301  10.740  -4.329  1.00  0.00     0.159 HD
ATOM     39  H   UNL     1      21.766  10.501  -2.628  1.00  0.00     0.159 HD
ENDBRANCH  34  35
ENDBRANCH  10  34
ENDBRANCH   7  10
ENDBRANCH   5   6
BRANCH   5  40
ATOM     40  CB  LEU A   4      20.657   8.000  -9.274  1.00  0.00     0.038 C 
BRANCH  40  41
ATOM     41  CG  LEU A   4      21.451   6.772  -9.772  1.00  0.00    -0.015 C 
ATOM     42  CD1 LEU A   4      21.764   5.779  -8.642  1.00  0.00     0.007 C 
ATOM     43  CD2 LEU A   4      20.663   6.069 -10.881  1.00  0.00     0.007 C 
ENDBRANCH  40  41
ENDBRANCH   5  40
ENDBRANCH   1   5
BRANCH   3  44
ATOM     44  CA  ARG A   5      25.185   9.121  -8.068  1.00  0.00     0.171 C 
BRANCH  44  45
ATOM     45  C   ARG A   5      25.899   7.967  -8.683  1.00  0.00     0.243 C 
ATOM     46  N   ARG A   6      25.931   7.883 -10.100  1.00  0.00    -0.341 N 
ATOM     47  O   ARG A   5      26.440   7.079  -7.971  1.00  0.00    -0.273 OA
ATOM     48  H   UNL     1      25.631   8.732 -10.630  1.00  0.00     0.164 HD
BRANCH  46  49
ATOM     49  CA  ARG A   6      26.538   6.769 -10.817  1.00  0.00     0.192 C 
BRANCH  49  50
ATOM     50  C   ARG A   6      27.988   6.642 -10.431  1.00  0.00     0.326 C 
ATOM     51  O   ARG A   6      28.796   7.576 -10.679  1.00  0.00    -0.250 OA
BRANCH  50  52
ATOM     52  OXT ARG A   6      28.437   5.485  -9.801  1.00  0.00    -0.480 OA
ATOM     53  H   UNL     1      29.409   5.384  -9.534  1.00  0.00     0.296 HD
ENDBRANCH  50  52
ENDBRANCH  49  50
BRANCH  49  54
ATOM     54  CB  ARG A   6      26.417   6.995 -12.335  1.00  0.00     0.039 C 
BRANCH  54  55
ATOM     55  CG  ARG A   6      24.953   7.117 -12.790  1.00  0.00     0.024 C 
BRANCH  55  56
ATOM     56  CD  ARG A   6      24.849   7.276 -14.310  1.00  0.00     0.116 C 
BRANCH  56  57
ATOM     57  NE  ARG A   6      23.448   7.257 -14.728  1.00  0.00    -0.357 N 
ATOM     58  CZ  ARG A   6      22.537   8.339 -14.482  1.00  0.00     0.185 C 
ATOM     59  NH2 ARG A   6      21.156   8.190 -14.817  1.00  0.00    -0.370 N 
ATOM     60  H   UNL     1      23.098   6.418 -15.244  1.00  0.00     0.163 HD
ATOM     61  H   UNL     1      20.476   8.964 -14.647  1.00  0.00     0.159 HD
ATOM     62  H   UNL     1      20.805   7.298 -15.229  1.00  0.00     0.159 HD
BRANCH  58  63
ATOM     63  NH1 ARG A   6      22.963   9.449 -13.965  1.00  0.00    -0.270 NA
ATOM     64  H   UNL     1      22.320  10.251 -13.778  1.00  0.00     0.191 HD
ENDBRANCH  58  63
ENDBRANCH  56  57
ENDBRANCH  55  56
ENDBRANCH  54  55
ENDBRANCH  49  54
ENDBRANCH  46  49
ENDBRANCH  44  45
BRANCH  44  65
ATOM     65  CB  ARG A   5      25.863   9.603  -6.792  1.00  0.00     0.037 C 
BRANCH  65  66
ATOM     66  CG  ARG A   5      25.169  10.860  -6.270  1.00  0.00     0.024 C 
BRANCH  66  67
ATOM     67  CD  ARG A   5      25.841  11.391  -5.013  1.00  0.00     0.116 C 
BRANCH  67  68
ATOM     68  NE  ARG A   5      25.376  10.687  -3.820  1.00  0.00    -0.357 N 
ATOM     69  CZ  ARG A   5      25.468  11.281  -2.526  1.00  0.00     0.185 C 
ATOM     70  NH2 ARG A   5      26.108  12.545  -2.351  1.00  0.00    -0.370 N 
ATOM     71  H   UNL     1      24.893   9.764  -3.913  1.00  0.00     0.163 HD
ATOM     72  H   UNL     1      26.699  12.981  -3.092  1.00  0.00     0.159 HD
ATOM     73  H   UNL     1      26.082  13.022  -1.422  1.00  0.00     0.159 HD
BRANCH  69  74
ATOM     74  NH1 ARG A   5      24.954  10.671  -1.507  1.00  0.00    -0.270 NA
ATOM     75  H   UNL     1      24.996  11.075  -0.544  1.00  0.00     0.191 HD
ENDBRANCH  69  74
ENDBRANCH  67  68
ENDBRANCH  66  67
ENDBRANCH  65  66
ENDBRANCH  44  65
ENDBRANCH   3  44
TORSDOF 31
