REMARK SMILES CC(C)C[C@H](NC(=O)[C@H](C)NC(=O)[C@H](Cc1ccccc1)NC(=O)[C@@H](N)CO)C(=O)N[C@@H](CCCNC(=N)N)C(=O)N[C@@H](CC(N)=O)C(=O)O
REMARK SMILES IDX 7 1 8 2 6 3 9 5 10 6 11 7 12 8 13 9 14 11 22 12 23 13 24 14
REMARK SMILES IDX 25 16 26 17 27 20 28 21 15 23 16 24 17 25 21 26 18 27 20 28
REMARK SMILES IDX 19 29 5 30 29 31 31 32 30 33 32 35 40 36 42 37 41 38 43 40
REMARK SMILES IDX 48 41 49 42 50 43 44 45 45 46 46 47 47 48 33 51 34 52 35 53
REMARK SMILES IDX 36 54 37 55 39 56 38 60 4 62 2 63 1 64 3 65
REMARK H PARENT 6 4 11 10 22 15 26 18 26 19 28 22 31 34 42 39 50 44 46 49
REMARK H PARENT 46 50 36 57 39 58 39 59 38 61
ROOT
ATOM      1  C   ALA A   3      20.046  10.101  -6.462  1.00  0.00     0.242 C 
ATOM      2  O   ALA A   3      20.174   9.200  -5.586  1.00  0.00    -0.273 OA
ATOM      3  N   LEU A   4      20.560   9.921  -7.772  1.00  0.00    -0.343 N 
ATOM      4  H   UNL     1      20.391  10.655  -8.498  1.00  0.00     0.164 HD
ENDROOT
BRANCH   1   5
ATOM      5  CA  ALA A   3      19.341  11.375  -6.146  1.00  0.00     0.168 C 
ATOM      6  CB  ALA A   3      20.179  12.246  -5.221  1.00  0.00     0.041 C 
BRANCH   5   7
ATOM      7  N   ALA A   3      18.095  11.060  -5.495  1.00  0.00    -0.343 N 
ATOM      8  C   PHE A   2      16.888  11.752  -5.774  1.00  0.00     0.243 C 
ATOM      9  O   PHE A   2      16.899  12.792  -6.488  1.00  0.00    -0.273 OA
ATOM     10  H   UNL     1      18.188  10.558  -4.585  1.00  0.00     0.164 HD
BRANCH   8  11
ATOM     11  CA  PHE A   2      15.652  11.314  -5.060  1.00  0.00     0.175 C 
BRANCH  11  12
ATOM     12  N   PHE A   2      14.453  11.739  -5.770  1.00  0.00    -0.343 N 
ATOM     13  C   SER A   1      13.914  13.049  -5.636  1.00  0.00     0.239 C 
ATOM     14  O   SER A   1      14.449  13.868  -4.839  1.00  0.00    -0.273 OA
ATOM     15  H   UNL     1      13.865  10.999  -6.210  1.00  0.00     0.164 HD
BRANCH  13  16
ATOM     16  CA  SER A   1      12.654  13.411  -6.385  1.00  0.00     0.167 C 
BRANCH  16  17
ATOM     17  N   SER A   1      12.468  14.864  -6.382  1.00  0.00    -0.318 NA
ATOM     18  H   UNL     1      12.337  15.180  -5.393  1.00  0.00     0.119 HD
ATOM     19  H   UNL     1      11.564  15.088  -6.858  1.00  0.00     0.119 HD
ENDBRANCH  16  17
BRANCH  16  20
ATOM     20  CB  SER A   1      12.696  12.894  -7.842  1.00  0.00     0.184 C 
BRANCH  20  21
ATOM     21  OG  SER A   1      11.440  13.036  -8.447  1.00  0.00    -0.394 OA
ATOM     22  H   UNL     1      11.454  13.890  -8.953  1.00  0.00     0.210 HD
ENDBRANCH  20  21
ENDBRANCH  16  20
ENDBRANCH  13  16
ENDBRANCH  11  12
BRANCH  11  23
ATOM     23  CB  PHE A   2      15.619   9.776  -4.891  1.00  0.00     0.070 C 
BRANCH  23  24
ATOM     24  CG  PHE A   2      14.449   9.289  -4.089  1.00  0.00    -0.045 A 
ATOM     25  CD1 PHE A   2      13.906  10.047  -3.033  1.00  0.00     0.004 A 
ATOM     26  CD2 PHE A   2      13.972   7.990  -4.310  1.00  0.00     0.004 A 
ATOM     27  CE1 PHE A   2      12.870   9.536  -2.261  1.00  0.00     0.000 A 
ATOM     28  CE2 PHE A   2      12.941   7.478  -3.522  1.00  0.00     0.000 A 
ATOM     29  CZ  PHE A   2      12.387   8.253  -2.503  1.00  0.00     0.000 A 
ENDBRANCH  23  24
ENDBRANCH  11  23
ENDBRANCH   8  11
ENDBRANCH   5   7
ENDBRANCH   1   5
BRANCH   3  30
ATOM     30  CA  LEU A   4      21.346   8.759  -8.136  1.00  0.00     0.171 C 
BRANCH  30  31
ATOM     31  C   LEU A   4      22.712   9.216  -8.518  1.00  0.00     0.243 C 
ATOM     32  N   ARG A   5      23.822   8.720  -7.784  1.00  0.00    -0.343 N 
ATOM     33  O   LEU A   4      22.875  10.032  -9.466  1.00  0.00    -0.273 OA
ATOM     34  H   UNL     1      23.667   8.029  -7.015  1.00  0.00     0.164 HD
BRANCH  32  35
ATOM     35  CA  ARG A   5      25.185   9.122  -8.073  1.00  0.00     0.171 C 
BRANCH  35  36
ATOM     36  C   ARG A   5      25.899   7.968  -8.686  1.00  0.00     0.243 C 
ATOM     37  N   ASN A   6      25.913   7.864 -10.102  1.00  0.00    -0.341 N 
ATOM     38  O   ARG A   5      26.447   7.087  -7.969  1.00  0.00    -0.273 OA
ATOM     39  H   UNL     1      25.489   8.647 -10.651  1.00  0.00     0.164 HD
BRANCH  37  40
ATOM     40  CA  ASN A   6      26.542   6.751 -10.804  1.00  0.00     0.201 C 
BRANCH  40  41
ATOM     41  C   ASN A   6      27.993   6.642 -10.416  1.00  0.00     0.326 C 
ATOM     42  O   ASN A   6      28.794   7.579 -10.677  1.00  0.00    -0.250 OA
BRANCH  41  43
ATOM     43  OXT ASN A   6      28.451   5.499  -9.768  1.00  0.00    -0.480 OA
ATOM     44  H   UNL     1      29.424   5.409  -9.500  1.00  0.00     0.296 HD
ENDBRANCH  41  43
ENDBRANCH  40  41
BRANCH  40  45
ATOM     45  CB  ASN A   6      26.424   6.946 -12.323  1.00  0.00     0.136 C 
BRANCH  45  46
ATOM     46  CG  ASN A   6      25.010   7.180 -12.773  1.00  0.00     0.220 C 
ATOM     47  ND2 ASN A   6      24.753   8.090 -13.833  1.00  0.00    -0.370 N 
ATOM     48  OD1 ASN A   6      24.053   6.558 -12.243  1.00  0.00    -0.275 OA
ATOM     49  H   UNL     1      23.775   8.258 -14.156  1.00  0.00     0.159 HD
ATOM     50  H   UNL     1      25.533   8.600 -14.306  1.00  0.00     0.159 HD
ENDBRANCH  45  46
ENDBRANCH  40  45
ENDBRANCH  37  40
ENDBRANCH  35  36
BRANCH  35  51
ATOM     51  CB  ARG A   5      25.863   9.605  -6.796  1.00  0.00     0.037 C 
BRANCH  51  52
ATOM     52  CG  ARG A   5      25.167  10.861  -6.272  1.00  0.00     0.024 C 
BRANCH  52  53
ATOM     53  CD  ARG A   5      25.842  11.391  -5.015  1.00  0.00     0.116 C 
BRANCH  53  54
ATOM     54  NE  ARG A   5      25.378  10.685  -3.823  1.00  0.00    -0.357 N 
ATOM     55  CZ  ARG A   5      25.469  11.279  -2.527  1.00  0.00     0.185 C 
ATOM     56  NH2 ARG A   5      26.106  12.541  -2.350  1.00  0.00    -0.370 N 
ATOM     57  H   UNL     1      24.904   9.757  -3.922  1.00  0.00     0.163 HD
ATOM     58  H   UNL     1      26.084  13.006  -1.415  1.00  0.00     0.159 HD
ATOM     59  H   UNL     1      26.693  12.983  -3.090  1.00  0.00     0.159 HD
BRANCH  55  60
ATOM     60  NH1 ARG A   5      24.959  10.678  -1.500  1.00  0.00    -0.270 NA
ATOM     61  H   UNL     1      24.478   9.755  -1.583  1.00  0.00     0.191 HD
ENDBRANCH  55  60
ENDBRANCH  53  54
ENDBRANCH  52  53
ENDBRANCH  51  52
ENDBRANCH  35  51
ENDBRANCH  32  35
ENDBRANCH  30  31
BRANCH  30  62
ATOM     62  CB  LEU A   4      20.654   7.998  -9.270  1.00  0.00     0.038 C 
BRANCH  62  63
ATOM     63  CG  LEU A   4      21.448   6.771  -9.768  1.00  0.00    -0.015 C 
ATOM     64  CD1 LEU A   4      21.762   5.778  -8.639  1.00  0.00     0.007 C 
ATOM     65  CD2 LEU A   4      20.662   6.067 -10.877  1.00  0.00     0.007 C 
ENDBRANCH  62  63
ENDBRANCH  30  62
ENDBRANCH   3  30
TORSDOF 26
