REMARK SMILES CC(C)C[C@H](NC(=O)[C@@H](NC(=O)[C@H](CCCNC(=N)N)NC(=O)[C@@H](N)CO)C(C)C)C(=O)N[C@@H](CCCNC(=N)N)C(=O)N[C@@H](CC(N)=O)C(=O)O
REMARK SMILES IDX 7 1 8 2 6 3 9 5 10 6 11 7 12 8 13 10 21 11 22 12 23 13 24 15
REMARK SMILES IDX 25 16 26 19 27 20 14 22 15 23 16 24 17 25 18 26 20 27 19 31
REMARK SMILES IDX 28 33 29 34 30 35 5 36 31 37 33 38 32 39 34 41 42 42 44 43
REMARK SMILES IDX 43 44 45 46 50 47 51 48 52 49 46 51 47 52 48 53 49 54 35 57
REMARK SMILES IDX 36 58 37 59 38 60 39 61 41 62 40 66 4 68 2 69 1 70 3 71
REMARK H PARENT 6 4 10 9 21 14 25 17 25 18 27 21 17 28 20 29 20 30 19 32 33 40
REMARK H PARENT 44 45 52 50 48 55 48 56 38 63 41 64 41 65 40 67
ROOT
ATOM      1  C   VAL A   3      20.043  10.089  -6.459  1.00  0.00     0.243 C 
ATOM      2  O   VAL A   3      20.163   9.174  -5.597  1.00  0.00    -0.273 OA
ATOM      3  N   LEU A   4      20.562   9.922  -7.769  1.00  0.00    -0.343 N 
ATOM      4  H   UNL     1      20.399  10.664  -8.488  1.00  0.00     0.164 HD
ENDROOT
BRANCH   1   5
ATOM      5  CA  VAL A   3      19.333  11.361  -6.127  1.00  0.00     0.174 C 
BRANCH   5   6
ATOM      6  N   VAL A   3      18.077  11.029  -5.500  1.00  0.00    -0.342 N 
ATOM      7  C   ARG A   2      16.874  11.743  -5.742  1.00  0.00     0.243 C 
ATOM      8  O   ARG A   2      16.889  12.787  -6.453  1.00  0.00    -0.273 OA
ATOM      9  H   UNL     1      18.148  10.435  -4.649  1.00  0.00     0.164 HD
BRANCH   7  10
ATOM     10  CA  ARG A   2      15.623  11.283  -5.044  1.00  0.00     0.171 C 
BRANCH  10  11
ATOM     11  N   ARG A   2      14.445  11.734  -5.771  1.00  0.00    -0.343 N 
ATOM     12  C   SER A   1      13.913  13.047  -5.637  1.00  0.00     0.239 C 
ATOM     13  O   SER A   1      14.450  13.862  -4.837  1.00  0.00    -0.273 OA
ATOM     14  H   UNL     1      13.882  11.013  -6.270  1.00  0.00     0.164 HD
BRANCH  12  15
ATOM     15  CA  SER A   1      12.655  13.411  -6.386  1.00  0.00     0.167 C 
BRANCH  15  16
ATOM     16  N   SER A   1      12.468  14.864  -6.378  1.00  0.00    -0.318 NA
ATOM     17  H   UNL     1      12.305  15.171  -5.391  1.00  0.00     0.119 HD
ATOM     18  H   UNL     1      11.582  15.091  -6.886  1.00  0.00     0.119 HD
ENDBRANCH  15  16
BRANCH  15  19
ATOM     19  CB  SER A   1      12.693  12.903  -7.848  1.00  0.00     0.184 C 
BRANCH  19  20
ATOM     20  OG  SER A   1      11.436  13.042  -8.450  1.00  0.00    -0.394 OA
ATOM     21  H   UNL     1      10.856  12.332  -8.067  1.00  0.00     0.210 HD
ENDBRANCH  19  20
ENDBRANCH  15  19
ENDBRANCH  12  15
ENDBRANCH  10  11
BRANCH  10  22
ATOM     22  CB  ARG A   2      15.574   9.738  -4.929  1.00  0.00     0.037 C 
BRANCH  22  23
ATOM     23  CG  ARG A   2      14.401   9.266  -4.067  1.00  0.00     0.024 C 
BRANCH  23  24
ATOM     24  CD  ARG A   2      14.323   7.734  -3.983  1.00  0.00     0.116 C 
BRANCH  24  25
ATOM     25  NE  ARG A   2      13.904   7.144  -5.257  1.00  0.00    -0.357 N 
ATOM     26  CZ  ARG A   2      13.792   5.726  -5.473  1.00  0.00     0.185 C 
ATOM     27  NH2 ARG A   2      13.410   5.242  -6.760  1.00  0.00    -0.370 N 
ATOM     28  H   UNL     1      13.661   7.773  -6.056  1.00  0.00     0.163 HD
ATOM     29  H   UNL     1      13.321   4.216  -6.937  1.00  0.00     0.159 HD
ATOM     30  H   UNL     1      13.215   5.906  -7.542  1.00  0.00     0.159 HD
BRANCH  26  31
ATOM     31  NH1 ARG A   2      14.028   4.874  -4.524  1.00  0.00    -0.270 NA
ATOM     32  H   UNL     1      14.309   5.150  -3.558  1.00  0.00     0.191 HD
ENDBRANCH  26  31
ENDBRANCH  24  25
ENDBRANCH  23  24
ENDBRANCH  22  23
ENDBRANCH  10  22
ENDBRANCH   7  10
ENDBRANCH   5   6
BRANCH   5  33
ATOM     33  CB  VAL A   3      20.152  12.286  -5.200  1.00  0.00     0.015 C 
ATOM     34  CG1 VAL A   3      20.450  11.685  -3.811  1.00  0.00     0.010 C 
ATOM     35  CG2 VAL A   3      21.452  12.743  -5.878  1.00  0.00     0.010 C 
ENDBRANCH   5  33
ENDBRANCH   1   5
BRANCH   3  36
ATOM     36  CA  LEU A   4      21.348   8.761  -8.138  1.00  0.00     0.171 C 
BRANCH  36  37
ATOM     37  C   LEU A   4      22.713   9.217  -8.519  1.00  0.00     0.243 C 
ATOM     38  N   ARG A   5      23.823   8.721  -7.785  1.00  0.00    -0.343 N 
ATOM     39  O   LEU A   4      22.876  10.033  -9.467  1.00  0.00    -0.273 OA
ATOM     40  H   UNL     1      23.668   8.031  -7.014  1.00  0.00     0.164 HD
BRANCH  38  41
ATOM     41  CA  ARG A   5      25.186   9.122  -8.074  1.00  0.00     0.171 C 
BRANCH  41  42
ATOM     42  C   ARG A   5      25.900   7.967  -8.686  1.00  0.00     0.243 C 
ATOM     43  N   ASN A   6      25.913   7.864 -10.103  1.00  0.00    -0.341 N 
ATOM     44  O   ARG A   5      26.447   7.086  -7.970  1.00  0.00    -0.273 OA
ATOM     45  H   UNL     1      25.489   8.647 -10.651  1.00  0.00     0.164 HD
BRANCH  43  46
ATOM     46  CA  ASN A   6      26.542   6.750 -10.804  1.00  0.00     0.201 C 
BRANCH  46  47
ATOM     47  C   ASN A   6      27.993   6.642 -10.416  1.00  0.00     0.326 C 
ATOM     48  O   ASN A   6      28.794   7.579 -10.677  1.00  0.00    -0.250 OA
BRANCH  47  49
ATOM     49  OXT ASN A   6      28.451   5.499  -9.769  1.00  0.00    -0.480 OA
ATOM     50  H   UNL     1      29.424   5.409  -9.500  1.00  0.00     0.296 HD
ENDBRANCH  47  49
ENDBRANCH  46  47
BRANCH  46  51
ATOM     51  CB  ASN A   6      26.424   6.946 -12.324  1.00  0.00     0.136 C 
BRANCH  51  52
ATOM     52  CG  ASN A   6      25.010   7.180 -12.773  1.00  0.00     0.220 C 
ATOM     53  ND2 ASN A   6      24.753   8.090 -13.833  1.00  0.00    -0.370 N 
ATOM     54  OD1 ASN A   6      24.053   6.558 -12.243  1.00  0.00    -0.275 OA
ATOM     55  H   UNL     1      23.774   8.258 -14.156  1.00  0.00     0.159 HD
ATOM     56  H   UNL     1      25.533   8.600 -14.306  1.00  0.00     0.159 HD
ENDBRANCH  51  52
ENDBRANCH  46  51
ENDBRANCH  43  46
ENDBRANCH  41  42
BRANCH  41  57
ATOM     57  CB  ARG A   5      25.867   9.605  -6.798  1.00  0.00     0.037 C 
BRANCH  57  58
ATOM     58  CG  ARG A   5      25.166  10.854  -6.267  1.00  0.00     0.024 C 
BRANCH  58  59
ATOM     59  CD  ARG A   5      25.841  11.389  -5.013  1.00  0.00     0.116 C 
BRANCH  59  60
ATOM     60  NE  ARG A   5      25.379  10.686  -3.819  1.00  0.00    -0.357 N 
ATOM     61  CZ  ARG A   5      25.469  11.282  -2.526  1.00  0.00     0.185 C 
ATOM     62  NH2 ARG A   5      26.108  12.547  -2.351  1.00  0.00    -0.370 N 
ATOM     63  H   UNL     1      24.903   9.759  -3.909  1.00  0.00     0.163 HD
ATOM     64  H   UNL     1      26.082  13.024  -1.423  1.00  0.00     0.159 HD
ATOM     65  H   UNL     1      26.697  12.983  -3.094  1.00  0.00     0.159 HD
BRANCH  61  66
ATOM     66  NH1 ARG A   5      24.956  10.672  -1.506  1.00  0.00    -0.270 NA
ATOM     67  H   UNL     1      24.997  11.077  -0.544  1.00  0.00     0.191 HD
ENDBRANCH  61  66
ENDBRANCH  59  60
ENDBRANCH  58  59
ENDBRANCH  57  58
ENDBRANCH  41  57
ENDBRANCH  38  41
ENDBRANCH  36  37
BRANCH  36  68
ATOM     68  CB  LEU A   4      20.655   8.000  -9.270  1.00  0.00     0.038 C 
BRANCH  68  69
ATOM     69  CG  LEU A   4      21.448   6.772  -9.768  1.00  0.00    -0.015 C 
ATOM     70  CD1 LEU A   4      21.762   5.779  -8.639  1.00  0.00     0.007 C 
ATOM     71  CD2 LEU A   4      20.661   6.068 -10.877  1.00  0.00     0.007 C 
ENDBRANCH  68  69
ENDBRANCH  36  68
ENDBRANCH   3  36
TORSDOF 30
