REMARK SMILES CC(C)C[C@H](NC(=O)[C@@H](NC(=O)CNC(=O)[C@@H](N)CO)[C@@H](C)O)C(=O)N[C@@H](CCCNC(=N)N)C(=O)N[C@@H](CC(N)=O)C(=O)O
REMARK SMILES IDX 7 1 8 2 6 3 9 5 10 6 11 7 12 8 13 10 14 11 15 12 16 13 17 15
REMARK SMILES IDX 18 16 19 19 20 20 21 22 22 23 23 24 5 26 24 27 26 28 25 29
REMARK SMILES IDX 27 31 35 32 37 33 36 34 38 36 43 37 44 38 45 39 39 41 40 42
REMARK SMILES IDX 41 43 42 44 28 47 29 48 30 49 31 50 32 51 34 52 33 56 4 58
REMARK SMILES IDX 2 59 1 60 3 61
REMARK H PARENT 6 4 10 9 14 14 18 17 18 18 20 21 23 25 26 30 37 35 45 40 41 45
REMARK H PARENT 41 46 31 53 34 54 34 55 33 57
ROOT
ATOM      1  C   THR A   3      20.045  10.081  -6.456  1.00  0.00     0.245 C 
ATOM      2  O   THR A   3      20.175   9.168  -5.595  1.00  0.00    -0.273 OA
ATOM      3  N   LEU A   4      20.564   9.920  -7.767  1.00  0.00    -0.342 N 
ATOM      4  H   UNL     1      20.397  10.662  -8.485  1.00  0.00     0.164 HD
ENDROOT
BRANCH   1   5
ATOM      5  CA  THR A   3      19.315  11.336  -6.123  1.00  0.00     0.200 C 
BRANCH   5   6
ATOM      6  N   THR A   3      18.037  10.988  -5.532  1.00  0.00    -0.341 N 
ATOM      7  C   GLY A   2      16.867  11.761  -5.739  1.00  0.00     0.240 C 
ATOM      8  O   GLY A   2      16.902  12.808  -6.443  1.00  0.00    -0.273 OA
ATOM      9  H   UNL     1      17.993  10.205  -4.840  1.00  0.00     0.164 HD
BRANCH   7  10
ATOM     10  CA  GLY A   2      15.631  11.333  -5.024  1.00  0.00     0.216 C 
BRANCH  10  11
ATOM     11  N   GLY A   2      14.439  11.728  -5.743  1.00  0.00    -0.346 N 
ATOM     12  C   SER A   1      13.907  13.045  -5.633  1.00  0.00     0.239 C 
ATOM     13  O   SER A   1      14.441  13.872  -4.842  1.00  0.00    -0.273 OA
ATOM     14  H   UNL     1      13.856  10.961  -6.144  1.00  0.00     0.164 HD
BRANCH  12  15
ATOM     15  CA  SER A   1      12.658  13.407  -6.388  1.00  0.00     0.167 C 
BRANCH  15  16
ATOM     16  N   SER A   1      12.472  14.859  -6.382  1.00  0.00    -0.318 NA
ATOM     17  H   UNL     1      11.541  15.085  -6.801  1.00  0.00     0.119 HD
ATOM     18  H   UNL     1      13.205  15.309  -6.979  1.00  0.00     0.119 HD
ENDBRANCH  15  16
BRANCH  15  19
ATOM     19  CB  SER A   1      12.689  12.867  -7.838  1.00  0.00     0.184 C 
BRANCH  19  20
ATOM     20  OG  SER A   1      11.442  13.041  -8.453  1.00  0.00    -0.394 OA
ATOM     21  H   UNL     1      10.832  12.363  -8.060  1.00  0.00     0.210 HD
ENDBRANCH  19  20
ENDBRANCH  15  19
ENDBRANCH  12  15
ENDBRANCH  10  11
ENDBRANCH   7  10
ENDBRANCH   5   6
BRANCH   5  22
ATOM     22  CB  THR A   3      20.127  12.259  -5.190  1.00  0.00     0.143 C 
ATOM     23  CG2 THR A   3      20.402  11.658  -3.806  1.00  0.00     0.041 C 
BRANCH  22  24
ATOM     24  OG1 THR A   3      21.353  12.595  -5.788  1.00  0.00    -0.391 OA
ATOM     25  H   UNL     1      21.152  13.238  -6.517  1.00  0.00     0.211 HD
ENDBRANCH  22  24
ENDBRANCH   5  22
ENDBRANCH   1   5
BRANCH   3  26
ATOM     26  CA  LEU A   4      21.349   8.760  -8.139  1.00  0.00     0.171 C 
BRANCH  26  27
ATOM     27  C   LEU A   4      22.713   9.216  -8.520  1.00  0.00     0.243 C 
ATOM     28  N   ARG A   5      23.823   8.721  -7.785  1.00  0.00    -0.343 N 
ATOM     29  O   LEU A   4      22.877  10.033  -9.468  1.00  0.00    -0.273 OA
ATOM     30  H   UNL     1      23.668   8.030  -7.015  1.00  0.00     0.164 HD
BRANCH  28  31
ATOM     31  CA  ARG A   5      25.186   9.122  -8.073  1.00  0.00     0.171 C 
BRANCH  31  32
ATOM     32  C   ARG A   5      25.900   7.968  -8.686  1.00  0.00     0.243 C 
ATOM     33  N   ASN A   6      25.913   7.864 -10.102  1.00  0.00    -0.341 N 
ATOM     34  O   ARG A   5      26.447   7.087  -7.969  1.00  0.00    -0.273 OA
ATOM     35  H   UNL     1      25.489   8.647 -10.651  1.00  0.00     0.164 HD
BRANCH  33  36
ATOM     36  CA  ASN A   6      26.542   6.751 -10.804  1.00  0.00     0.201 C 
BRANCH  36  37
ATOM     37  C   ASN A   6      27.993   6.642 -10.416  1.00  0.00     0.326 C 
ATOM     38  O   ASN A   6      28.794   7.579 -10.677  1.00  0.00    -0.250 OA
BRANCH  37  39
ATOM     39  OXT ASN A   6      28.451   5.499  -9.768  1.00  0.00    -0.480 OA
ATOM     40  H   UNL     1      29.424   5.409  -9.499  1.00  0.00     0.296 HD
ENDBRANCH  37  39
ENDBRANCH  36  37
BRANCH  36  41
ATOM     41  CB  ASN A   6      26.424   6.946 -12.323  1.00  0.00     0.136 C 
BRANCH  41  42
ATOM     42  CG  ASN A   6      25.010   7.180 -12.773  1.00  0.00     0.220 C 
ATOM     43  ND2 ASN A   6      24.753   8.090 -13.833  1.00  0.00    -0.370 N 
ATOM     44  OD1 ASN A   6      24.053   6.558 -12.243  1.00  0.00    -0.275 OA
ATOM     45  H   UNL     1      23.775   8.258 -14.156  1.00  0.00     0.159 HD
ATOM     46  H   UNL     1      25.533   8.600 -14.306  1.00  0.00     0.159 HD
ENDBRANCH  41  42
ENDBRANCH  36  41
ENDBRANCH  33  36
ENDBRANCH  31  32
BRANCH  31  47
ATOM     47  CB  ARG A   5      25.863   9.606  -6.796  1.00  0.00     0.037 C 
BRANCH  47  48
ATOM     48  CG  ARG A   5      25.167  10.861  -6.272  1.00  0.00     0.024 C 
BRANCH  48  49
ATOM     49  CD  ARG A   5      25.841  11.391  -5.015  1.00  0.00     0.116 C 
BRANCH  49  50
ATOM     50  NE  ARG A   5      25.377  10.685  -3.823  1.00  0.00    -0.357 N 
ATOM     51  CZ  ARG A   5      25.468  11.279  -2.527  1.00  0.00     0.185 C 
ATOM     52  NH2 ARG A   5      26.106  12.541  -2.350  1.00  0.00    -0.370 N 
ATOM     53  H   UNL     1      24.901   9.759  -3.922  1.00  0.00     0.163 HD
ATOM     54  H   UNL     1      26.084  13.006  -1.415  1.00  0.00     0.159 HD
ATOM     55  H   UNL     1      26.693  12.983  -3.090  1.00  0.00     0.159 HD
BRANCH  51  56
ATOM     56  NH1 ARG A   5      24.958  10.679  -1.500  1.00  0.00    -0.270 NA
ATOM     57  H   UNL     1      24.477   9.755  -1.584  1.00  0.00     0.191 HD
ENDBRANCH  51  56
ENDBRANCH  49  50
ENDBRANCH  48  49
ENDBRANCH  47  48
ENDBRANCH  31  47
ENDBRANCH  28  31
ENDBRANCH  26  27
BRANCH  26  58
ATOM     58  CB  LEU A   4      20.655   8.000  -9.271  1.00  0.00     0.038 C 
BRANCH  58  59
ATOM     59  CG  LEU A   4      21.448   6.771  -9.769  1.00  0.00    -0.015 C 
ATOM     60  CD1 LEU A   4      21.762   5.778  -8.639  1.00  0.00     0.007 C 
ATOM     61  CD2 LEU A   4      20.661   6.068 -10.877  1.00  0.00     0.007 C 
ENDBRANCH  58  59
ENDBRANCH  26  58
ENDBRANCH   3  26
TORSDOF 26
