REMARK SMILES C[C@H](NC(=O)[C@H](Cc1ccccc1)NC(=O)[C@@H](N)CO)C(=O)N[C@@H](CCCCN)C(=O)N[C@@H](CCCNC(=N)N)C(=O)N[C@@H](CC(N)=O)C(=O)O
REMARK SMILES IDX 21 1 22 2 23 3 2 5 1 6 3 7 4 8 5 9 6 11 14 12 15 13 16 14
REMARK SMILES IDX 17 16 18 17 19 20 20 21 7 23 8 24 9 25 13 26 10 27 12 28
REMARK SMILES IDX 11 29 24 30 30 31 32 32 31 33 33 35 41 36 43 37 42 38 44 40
REMARK SMILES IDX 49 41 50 42 51 43 45 45 46 46 47 47 48 48 34 51 35 52 36 53
REMARK SMILES IDX 37 54 38 55 40 56 39 60 25 62 26 63 27 64 28 65 29 66
REMARK H PARENT 23 4 3 10 14 15 18 18 18 19 20 22 32 34 43 39 51 44 47 49
REMARK H PARENT 47 50 37 57 40 58 40 59 39 61 29 67 29 68
ROOT
ATOM      1  C   ALA A   3       1.833  -0.460  -1.153  1.00  0.00     0.242 C 
ATOM      2  O   ALA A   3       1.676  -0.995  -0.022  1.00  0.00    -0.273 OA
ATOM      3  N   LYS A   4       0.963   0.602  -1.575  1.00  0.00    -0.343 N 
ATOM      4  H   UNL     1       1.036   0.948  -2.561  1.00  0.00     0.164 HD
ENDROOT
BRANCH   1   5
ATOM      5  CA  ALA A   3       2.920  -0.958  -2.069  1.00  0.00     0.168 C 
ATOM      6  CB  ALA A   3       2.585  -2.372  -2.552  1.00  0.00     0.041 C 
BRANCH   5   7
ATOM      7  N   ALA A   3       4.214  -0.940  -1.379  1.00  0.00    -0.343 N 
ATOM      8  C   PHE A   2       4.871   0.286  -1.019  1.00  0.00     0.243 C 
ATOM      9  O   PHE A   2       4.281   1.389  -1.190  1.00  0.00    -0.273 OA
ATOM     10  H   UNL     1       4.698  -1.843  -1.167  1.00  0.00     0.164 HD
BRANCH   8  11
ATOM     11  CA  PHE A   2       6.246   0.251  -0.392  1.00  0.00     0.175 C 
BRANCH  11  12
ATOM     12  N   PHE A   2       7.011   1.445  -0.768  1.00  0.00    -0.343 N 
ATOM     13  C   SER A   1       8.418   1.401  -1.062  1.00  0.00     0.239 C 
ATOM     14  O   SER A   1       9.019   0.294  -1.124  1.00  0.00    -0.273 OA
ATOM     15  H   UNL     1       6.561   2.380  -0.643  1.00  0.00     0.164 HD
BRANCH  13  16
ATOM     16  CA  SER A   1       9.206   2.671  -1.292  1.00  0.00     0.167 C 
BRANCH  16  17
ATOM     17  N   SER A   1       8.682   3.418  -2.438  1.00  0.00    -0.318 NA
ATOM     18  H   UNL     1       7.685   3.682  -2.264  1.00  0.00     0.119 HD
ATOM     19  H   UNL     1       8.698   2.796  -3.280  1.00  0.00     0.119 HD
ENDBRANCH  16  17
BRANCH  16  20
ATOM     20  CB  SER A   1       9.223   3.562  -0.041  1.00  0.00     0.184 C 
BRANCH  20  21
ATOM     21  OG  SER A   1       9.853   2.904   1.026  1.00  0.00    -0.394 OA
ATOM     22  H   UNL     1       9.163   2.341   1.464  1.00  0.00     0.210 HD
ENDBRANCH  20  21
ENDBRANCH  16  20
ENDBRANCH  13  16
ENDBRANCH  11  12
BRANCH  11  23
ATOM     23  CB  PHE A   2       6.154   0.167   1.142  1.00  0.00     0.070 C 
BRANCH  23  24
ATOM     24  CG  PHE A   2       5.547  -1.136   1.597  1.00  0.00    -0.045 A 
ATOM     25  CD1 PHE A   2       4.200  -1.194   1.993  1.00  0.00     0.004 A 
ATOM     26  CD2 PHE A   2       6.308  -2.317   1.576  1.00  0.00     0.004 A 
ATOM     27  CE1 PHE A   2       3.627  -2.413   2.368  1.00  0.00     0.000 A 
ATOM     28  CE2 PHE A   2       5.733  -3.534   1.953  1.00  0.00     0.000 A 
ATOM     29  CZ  PHE A   2       4.393  -3.581   2.347  1.00  0.00     0.000 A 
ENDBRANCH  23  24
ENDBRANCH  11  23
ENDBRANCH   8  11
ENDBRANCH   5   7
ENDBRANCH   1   5
BRANCH   3  30
ATOM     30  CA  LYS A   4      -0.121   1.105  -0.731  1.00  0.00     0.171 C 
BRANCH  30  31
ATOM     31  C   LYS A   4      -1.334   0.228  -0.908  1.00  0.00     0.243 C 
ATOM     32  N   ARG A   5      -1.866  -0.503   0.206  1.00  0.00    -0.343 N 
ATOM     33  O   LYS A   4      -1.882   0.143  -2.040  1.00  0.00    -0.273 OA
ATOM     34  H   UNL     1      -1.354  -0.465   1.117  1.00  0.00     0.164 HD
BRANCH  32  35
ATOM     35  CA  ARG A   5      -3.174  -1.164   0.148  1.00  0.00     0.171 C 
BRANCH  35  36
ATOM     36  C   ARG A   5      -4.263  -0.124   0.232  1.00  0.00     0.243 C 
ATOM     37  N   ASN A   6      -5.404  -0.198  -0.636  1.00  0.00    -0.341 N 
ATOM     38  O   ARG A   5      -4.183   0.792   1.097  1.00  0.00    -0.273 OA
ATOM     39  H   UNL     1      -5.457  -0.983  -1.326  1.00  0.00     0.164 HD
BRANCH  37  40
ATOM     40  CA  ASN A   6      -6.498   0.778  -0.572  1.00  0.00     0.201 C 
BRANCH  40  41
ATOM     41  C   ASN A   6      -7.256   0.610   0.718  1.00  0.00     0.326 C 
ATOM     42  O   ASN A   6      -7.780  -0.498   1.007  1.00  0.00    -0.250 OA
BRANCH  41  43
ATOM     43  OXT ASN A   6      -7.380   1.684   1.590  1.00  0.00    -0.480 OA
ATOM     44  H   UNL     1      -7.891   1.591   2.460  1.00  0.00     0.296 HD
ENDBRANCH  41  43
ENDBRANCH  40  41
BRANCH  40  45
ATOM     45  CB  ASN A   6      -7.433   0.615  -1.786  1.00  0.00     0.136 C 
BRANCH  45  46
ATOM     46  CG  ASN A   6      -8.490   1.681  -1.823  1.00  0.00     0.220 C 
ATOM     47  ND2 ASN A   6      -8.192   2.980  -2.336  1.00  0.00    -0.370 N 
ATOM     48  OD1 ASN A   6      -9.640   1.437  -1.370  1.00  0.00    -0.275 OA
ATOM     49  H   UNL     1      -8.929   3.719  -2.351  1.00  0.00     0.159 HD
ATOM     50  H   UNL     1      -7.240   3.204  -2.701  1.00  0.00     0.159 HD
ENDBRANCH  45  46
ENDBRANCH  40  45
ENDBRANCH  37  40
ENDBRANCH  35  36
BRANCH  35  51
ATOM     51  CB  ARG A   5      -3.298  -2.189   1.296  1.00  0.00     0.037 C 
BRANCH  51  52
ATOM     52  CG  ARG A   5      -4.609  -2.997   1.285  1.00  0.00     0.024 C 
BRANCH  52  53
ATOM     53  CD  ARG A   5      -4.683  -4.003   0.128  1.00  0.00     0.116 C 
BRANCH  53  54
ATOM     54  NE  ARG A   5      -5.889  -4.821   0.245  1.00  0.00    -0.357 N 
ATOM     55  CZ  ARG A   5      -7.197  -4.341  -0.103  1.00  0.00     0.185 C 
ATOM     56  NH2 ARG A   5      -8.337  -5.176   0.111  1.00  0.00    -0.370 N 
ATOM     57  H   UNL     1      -5.786  -5.812   0.562  1.00  0.00     0.163 HD
ATOM     58  H   UNL     1      -8.227  -6.122   0.536  1.00  0.00     0.159 HD
ATOM     59  H   UNL     1      -9.293  -4.857  -0.163  1.00  0.00     0.159 HD
BRANCH  55  60
ATOM     60  NH1 ARG A   5      -7.345  -3.164  -0.624  1.00  0.00    -0.270 NA
ATOM     61  H   UNL     1      -8.284  -2.792  -0.890  1.00  0.00     0.191 HD
ENDBRANCH  55  60
ENDBRANCH  53  54
ENDBRANCH  52  53
ENDBRANCH  51  52
ENDBRANCH  35  51
ENDBRANCH  32  35
ENDBRANCH  30  31
BRANCH  30  62
ATOM     62  CB  LYS A   4      -0.431   2.574  -1.092  1.00  0.00     0.035 C 
BRANCH  62  63
ATOM     63  CG  LYS A   4      -1.459   3.235  -0.143  1.00  0.00     0.004 C 
BRANCH  63  64
ATOM     64  CD  LYS A   4      -0.827   4.141   0.932  1.00  0.00     0.015 C 
BRANCH  64  65
ATOM     65  CE  LYS A   4       0.035   3.390   1.956  1.00  0.00     0.077 C 
BRANCH  65  66
ATOM     66  NZ  LYS A   4      -0.730   2.335   2.616  1.00  0.00    -0.330 NA
ATOM     67  H   UNL     1      -0.077   1.809   3.242  1.00  0.00     0.118 HD
ATOM     68  H   UNL     1      -1.442   2.787   3.236  1.00  0.00     0.118 HD
ENDBRANCH  65  66
ENDBRANCH  64  65
ENDBRANCH  63  64
ENDBRANCH  62  63
ENDBRANCH  30  62
ENDBRANCH   3  30
TORSDOF 29
