REMARK SMILES CC(C)C[C@H](NC(=O)[C@H](Cc1ccccc1)NC(=O)[C@@H](N)CO)C(=O)N[C@@H](Cc1c[nH]cn1)C(=O)N[C@@H](C)C(=O)N[C@@H](CC(N)=O)C(=O)O
REMARK SMILES IDX 24 1 25 2 26 3 5 5 6 6 7 7 8 8 9 10 17 11 18 12 19 13 20 15
REMARK SMILES IDX 21 16 22 19 23 20 10 22 11 23 12 24 16 25 13 26 15 27 14 28
REMARK SMILES IDX 4 29 2 30 1 31 3 32 27 33 34 34 36 35 35 36 37 38 38 39
REMARK SMILES IDX 39 40 41 41 40 42 42 44 47 45 48 46 49 47 43 49 44 50 45 51
REMARK SMILES IDX 46 52 28 55 29 56 33 57 30 58 32 59 31 60
REMARK H PARENT 26 4 6 9 17 14 21 17 21 18 23 21 36 37 41 43 49 48 45 53 45 54
REMARK H PARENT 31 61
ROOT
ATOM      1  C   LEU A   3       0.065  -0.484   0.044  1.00  0.00     0.243 C 
ATOM      2  O   LEU A   3      -0.097  -0.602  -1.197  1.00  0.00    -0.273 OA
ATOM      3  N   HIS A   4       1.374  -0.229   0.583  1.00  0.00    -0.342 N 
ATOM      4  H   UNL     1       1.413   0.061   1.585  1.00  0.00     0.164 HD
ENDROOT
BRANCH   1   5
ATOM      5  CA  LEU A   3      -1.112  -0.641   0.981  1.00  0.00     0.171 C 
BRANCH   5   6
ATOM      6  N   LEU A   3      -2.375  -0.222   0.352  1.00  0.00    -0.343 N 
ATOM      7  C   PHE A   2      -3.540   0.112   1.119  1.00  0.00     0.243 C 
ATOM      8  O   PHE A   2      -3.499   0.093   2.379  1.00  0.00    -0.273 OA
ATOM      9  H   UNL     1      -2.429  -0.082  -0.679  1.00  0.00     0.164 HD
BRANCH   7  10
ATOM     10  CA  PHE A   2      -4.803   0.528   0.417  1.00  0.00     0.175 C 
BRANCH  10  11
ATOM     11  N   PHE A   2      -5.970   0.237   1.255  1.00  0.00    -0.343 N 
ATOM     12  C   SER A   1      -6.717  -0.983   1.136  1.00  0.00     0.239 C 
ATOM     13  O   SER A   1      -6.257  -1.942   0.463  1.00  0.00    -0.273 OA
ATOM     14  H   UNL     1      -6.209   0.904   2.024  1.00  0.00     0.164 HD
BRANCH  12  15
ATOM     15  CA  SER A   1      -8.035  -1.144   1.845  1.00  0.00     0.167 C 
BRANCH  15  16
ATOM     16  N   SER A   1      -7.807  -1.280   3.283  1.00  0.00    -0.318 NA
ATOM     17  H   UNL     1      -7.483  -0.369   3.682  1.00  0.00     0.119 HD
ATOM     18  H   UNL     1      -8.718  -1.514   3.747  1.00  0.00     0.119 HD
ENDBRANCH  15  16
BRANCH  15  19
ATOM     19  CB  SER A   1      -8.987   0.023   1.525  1.00  0.00     0.184 C 
BRANCH  19  20
ATOM     20  OG  SER A   1     -10.260  -0.218   2.061  1.00  0.00    -0.394 OA
ATOM     21  H   UNL     1     -10.690  -0.898   1.480  1.00  0.00     0.210 HD
ENDBRANCH  19  20
ENDBRANCH  15  19
ENDBRANCH  12  15
ENDBRANCH  10  11
BRANCH  10  22
ATOM     22  CB  PHE A   2      -4.750   2.026   0.076  1.00  0.00     0.070 C 
BRANCH  22  23
ATOM     23  CG  PHE A   2      -5.953   2.444  -0.730  1.00  0.00    -0.045 A 
ATOM     24  CD1 PHE A   2      -7.047   3.071  -0.110  1.00  0.00     0.004 A 
ATOM     25  CD2 PHE A   2      -6.008   2.173  -2.108  1.00  0.00     0.004 A 
ATOM     26  CE1 PHE A   2      -8.177   3.415  -0.859  1.00  0.00     0.000 A 
ATOM     27  CE2 PHE A   2      -7.139   2.520  -2.852  1.00  0.00     0.000 A 
ATOM     28  CZ  PHE A   2      -8.225   3.137  -2.228  1.00  0.00     0.000 A 
ENDBRANCH  22  23
ENDBRANCH  10  22
ENDBRANCH   7  10
ENDBRANCH   5   6
BRANCH   5  29
ATOM     29  CB  LEU A   3      -1.208  -2.071   1.580  1.00  0.00     0.038 C 
BRANCH  29  30
ATOM     30  CG  LEU A   3      -1.296  -3.284   0.611  1.00  0.00    -0.015 C 
ATOM     31  CD1 LEU A   3      -2.357  -3.132  -0.486  1.00  0.00     0.007 C 
ATOM     32  CD2 LEU A   3       0.067  -3.687   0.028  1.00  0.00     0.007 C 
ENDBRANCH  29  30
ENDBRANCH   5  29
ENDBRANCH   1   5
BRANCH   3  33
ATOM     33  CA  HIS A   4       2.619  -0.587  -0.116  1.00  0.00     0.177 C 
BRANCH  33  34
ATOM     34  C   HIS A   4       3.819  -0.388   0.782  1.00  0.00     0.243 C 
ATOM     35  N   ALA A   5       5.015  -1.139   0.529  1.00  0.00    -0.343 N 
ATOM     36  O   HIS A   4       3.805   0.499   1.680  1.00  0.00    -0.273 OA
ATOM     37  H   UNL     1       4.987  -1.872  -0.217  1.00  0.00     0.164 HD
BRANCH  35  38
ATOM     38  CA  ALA A   5       6.279  -0.865   1.224  1.00  0.00     0.168 C 
ATOM     39  CB  ALA A   5       7.292  -1.977   0.934  1.00  0.00     0.041 C 
BRANCH  38  40
ATOM     40  C   ALA A   5       6.841   0.473   0.812  1.00  0.00     0.243 C 
ATOM     41  N   ASN A   6       7.954   1.031   1.529  1.00  0.00    -0.341 N 
ATOM     42  O   ALA A   5       6.347   1.085  -0.173  1.00  0.00    -0.273 OA
ATOM     43  H   UNL     1       8.277   0.529   2.386  1.00  0.00     0.164 HD
BRANCH  41  44
ATOM     44  CA  ASN A   6       8.676   2.256   1.149  1.00  0.00     0.201 C 
BRANCH  44  45
ATOM     45  C   ASN A   6       7.876   3.486   1.488  1.00  0.00     0.326 C 
ATOM     46  O   ASN A   6       6.615   3.466   1.472  1.00  0.00    -0.250 OA
BRANCH  45  47
ATOM     47  OXT ASN A   6       8.540   4.674   1.779  1.00  0.00    -0.480 OA
ATOM     48  H   UNL     1       8.023   5.519   2.004  1.00  0.00     0.296 HD
ENDBRANCH  45  47
ENDBRANCH  44  45
BRANCH  44  49
ATOM     49  CB  ASN A   6       9.102   2.270  -0.334  1.00  0.00     0.136 C 
BRANCH  49  50
ATOM     50  CG  ASN A   6       9.749   0.979  -0.746  1.00  0.00     0.220 C 
ATOM     51  ND2 ASN A   6       9.167   0.175  -1.779  1.00  0.00    -0.370 N 
ATOM     52  OD1 ASN A   6      10.803   0.590  -0.166  1.00  0.00    -0.275 OA
ATOM     53  H   UNL     1       9.607  -0.731  -2.056  1.00  0.00     0.159 HD
ATOM     54  H   UNL     1       8.295   0.479  -2.265  1.00  0.00     0.159 HD
ENDBRANCH  49  50
ENDBRANCH  44  49
ENDBRANCH  41  44
ENDBRANCH  38  40
ENDBRANCH  35  38
ENDBRANCH  33  34
BRANCH  33  55
ATOM     55  CB  HIS A   4       2.812   0.244  -1.416  1.00  0.00     0.093 C 
BRANCH  55  56
ATOM     56  CG  HIS A   4       2.374  -0.497  -2.652  1.00  0.00     0.061 A 
ATOM     57  ND1 HIS A   4       2.627  -1.802  -2.895  1.00  0.00    -0.242 NA
ATOM     58  CD2 HIS A   4       1.760   0.071  -3.753  1.00  0.00     0.107 A 
ATOM     59  CE1 HIS A   4       2.125  -2.007  -4.132  1.00  0.00     0.196 A 
ATOM     60  NE2 HIS A   4       1.603  -0.890  -4.678  1.00  0.00    -0.351 N 
ATOM     61  H   UNL     1       1.174  -0.789  -5.626  1.00  0.00     0.167 HD
ENDBRANCH  55  56
ENDBRANCH  33  55
ENDBRANCH   3  33
TORSDOF 23
