REMARK SMILES CC(C)C[C@H](NC(=O)[C@H](Cc1ccccc1)NC(=O)[C@@H](N)CO)C(=O)N[C@@H](C)C(=O)N[C@@H](Cc1c[nH]cn1)C(=O)N[C@@H](CC(N)=O)C(=O)O
REMARK SMILES IDX 24 1 25 2 26 3 5 5 6 6 7 7 8 8 9 10 17 11 18 12 19 13 20 15
REMARK SMILES IDX 21 16 22 19 23 20 10 22 11 23 12 24 16 25 13 26 15 27 14 28
REMARK SMILES IDX 4 29 2 30 1 31 3 32 27 33 28 34 29 35 31 36 30 37 32 39
REMARK SMILES IDX 39 40 41 41 40 42 42 44 47 45 48 46 49 47 43 49 44 50 45 51
REMARK SMILES IDX 46 52 33 55 34 56 38 57 35 58 37 59 36 60
REMARK H PARENT 26 4 6 9 17 14 21 17 21 18 23 21 31 38 41 43 49 48 45 53 45 54
REMARK H PARENT 36 61
ROOT
ATOM      1  C   LEU A   3      20.054  10.081  -6.477  1.00  0.00     0.243 C 
ATOM      2  O   LEU A   3      20.168   9.158  -5.623  1.00  0.00    -0.273 OA
ATOM      3  N   ALA A   4      20.564   9.910  -7.787  1.00  0.00    -0.343 N 
ATOM      4  H   UNL     1      20.402  10.653  -8.506  1.00  0.00     0.164 HD
ENDROOT
BRANCH   1   5
ATOM      5  CA  LEU A   3      19.341  11.352  -6.147  1.00  0.00     0.171 C 
BRANCH   5   6
ATOM      6  N   LEU A   3      18.083  11.020  -5.538  1.00  0.00    -0.343 N 
ATOM      7  C   PHE A   2      16.887  11.744  -5.776  1.00  0.00     0.243 C 
ATOM      8  O   PHE A   2      16.905  12.795  -6.474  1.00  0.00    -0.273 OA
ATOM      9  H   UNL     1      18.155  10.387  -4.718  1.00  0.00     0.164 HD
BRANCH   7  10
ATOM     10  CA  PHE A   2      15.653  11.312  -5.056  1.00  0.00     0.175 C 
BRANCH  10  11
ATOM     11  N   PHE A   2      14.456  11.739  -5.766  1.00  0.00    -0.343 N 
ATOM     12  C   SER A   1      13.919  13.049  -5.633  1.00  0.00     0.239 C 
ATOM     13  O   SER A   1      14.449  13.867  -4.832  1.00  0.00    -0.273 OA
ATOM     14  H   UNL     1      13.869  11.000  -6.212  1.00  0.00     0.164 HD
BRANCH  12  15
ATOM     15  CA  SER A   1      12.662  13.410  -6.386  1.00  0.00     0.167 C 
BRANCH  15  16
ATOM     16  N   SER A   1      12.455  14.860  -6.398  1.00  0.00    -0.318 NA
ATOM     17  H   UNL     1      13.316  15.337  -6.755  1.00  0.00     0.119 HD
ATOM     18  H   UNL     1      12.286  15.190  -5.420  1.00  0.00     0.119 HD
ENDBRANCH  15  16
BRANCH  15  19
ATOM     19  CB  SER A   1      12.690  12.886  -7.840  1.00  0.00     0.184 C 
BRANCH  19  20
ATOM     20  OG  SER A   1      11.438  13.053  -8.445  1.00  0.00    -0.394 OA
ATOM     21  H   UNL     1      10.839  12.361  -8.060  1.00  0.00     0.210 HD
ENDBRANCH  19  20
ENDBRANCH  15  19
ENDBRANCH  12  15
ENDBRANCH  10  11
BRANCH  10  22
ATOM     22  CB  PHE A   2      15.610   9.772  -4.881  1.00  0.00     0.070 C 
BRANCH  22  23
ATOM     23  CG  PHE A   2      14.435   9.292  -4.092  1.00  0.00    -0.045 A 
ATOM     24  CD1 PHE A   2      13.898  10.048  -3.033  1.00  0.00     0.004 A 
ATOM     25  CD2 PHE A   2      13.964   7.991  -4.310  1.00  0.00     0.004 A 
ATOM     26  CE1 PHE A   2      12.866   9.535  -2.258  1.00  0.00     0.000 A 
ATOM     27  CE2 PHE A   2      12.937   7.477  -3.520  1.00  0.00     0.000 A 
ATOM     28  CZ  PHE A   2      12.384   8.252  -2.500  1.00  0.00     0.000 A 
ENDBRANCH  22  23
ENDBRANCH  10  22
ENDBRANCH   7  10
ENDBRANCH   5   6
BRANCH   5  29
ATOM     29  CB  LEU A   3      20.165  12.249  -5.215  1.00  0.00     0.038 C 
BRANCH  29  30
ATOM     30  CG  LEU A   3      20.407  11.678  -3.788  1.00  0.00    -0.015 C 
ATOM     31  CD1 LEU A   3      21.809  12.052  -3.309  1.00  0.00     0.007 C 
ATOM     32  CD2 LEU A   3      19.361  12.178  -2.782  1.00  0.00     0.007 C 
ENDBRANCH  29  30
ENDBRANCH   5  29
ENDBRANCH   1   5
BRANCH   3  33
ATOM     33  CA  ALA A   4      21.343   8.746  -8.158  1.00  0.00     0.168 C 
ATOM     34  CB  ALA A   4      20.667   8.004  -9.301  1.00  0.00     0.041 C 
BRANCH  33  35
ATOM     35  C   ALA A   4      22.711   9.199  -8.532  1.00  0.00     0.242 C 
ATOM     36  N   HIS A   5      23.817   8.722  -7.780  1.00  0.00    -0.342 N 
ATOM     37  O   ALA A   4      22.877  10.023  -9.473  1.00  0.00    -0.273 OA
ATOM     38  H   UNL     1      23.663   8.010  -7.030  1.00  0.00     0.164 HD
BRANCH  36  39
ATOM     39  CA  HIS A   5      25.180   9.131  -8.067  1.00  0.00     0.177 C 
BRANCH  39  40
ATOM     40  C   HIS A   5      25.900   7.976  -8.681  1.00  0.00     0.243 C 
ATOM     41  N   ASN A   6      25.914   7.870 -10.098  1.00  0.00    -0.340 N 
ATOM     42  O   HIS A   5      26.447   7.095  -7.964  1.00  0.00    -0.273 OA
ATOM     43  H   UNL     1      25.493   8.653 -10.648  1.00  0.00     0.164 HD
BRANCH  41  44
ATOM     44  CA  ASN A   6      26.541   6.754 -10.800  1.00  0.00     0.201 C 
BRANCH  44  45
ATOM     45  C   ASN A   6      27.992   6.643 -10.413  1.00  0.00     0.326 C 
ATOM     46  O   ASN A   6      28.795   7.579 -10.677  1.00  0.00    -0.250 OA
BRANCH  45  47
ATOM     47  OXT ASN A   6      28.450   5.500  -9.765  1.00  0.00    -0.480 OA
ATOM     48  H   UNL     1      29.423   5.409  -9.498  1.00  0.00     0.296 HD
ENDBRANCH  45  47
ENDBRANCH  44  45
BRANCH  44  49
ATOM     49  CB  ASN A   6      26.423   6.947 -12.320  1.00  0.00     0.136 C 
BRANCH  49  50
ATOM     50  CG  ASN A   6      25.009   7.182 -12.771  1.00  0.00     0.220 C 
ATOM     51  ND2 ASN A   6      24.754   8.089 -13.834  1.00  0.00    -0.370 N 
ATOM     52  OD1 ASN A   6      24.051   6.563 -12.237  1.00  0.00    -0.275 OA
ATOM     53  H   UNL     1      25.534   8.595 -14.308  1.00  0.00     0.159 HD
ATOM     54  H   UNL     1      23.775   8.257 -14.157  1.00  0.00     0.159 HD
ENDBRANCH  49  50
ENDBRANCH  44  49
ENDBRANCH  41  44
ENDBRANCH  39  40
BRANCH  39  55
ATOM     55  CB  HIS A   5      25.857   9.630  -6.790  1.00  0.00     0.093 C 
BRANCH  55  56
ATOM     56  CG  HIS A   5      25.192  10.860  -6.234  1.00  0.00     0.061 A 
ATOM     57  ND1 HIS A   5      24.448  11.727  -6.954  1.00  0.00    -0.242 NA
ATOM     58  CD2 HIS A   5      25.421  11.379  -4.980  1.00  0.00     0.107 A 
ATOM     59  CE1 HIS A   5      24.215  12.746  -6.101  1.00  0.00     0.196 A 
ATOM     60  NE2 HIS A   5      24.801  12.566  -4.902  1.00  0.00    -0.351 N 
ATOM     61  H   UNL     1      24.784  13.217  -4.087  1.00  0.00     0.167 HD
ENDBRANCH  55  56
ENDBRANCH  39  55
ENDBRANCH  36  39
ENDBRANCH  33  35
ENDBRANCH   3  33
TORSDOF 23
