REMARK SMILES CC(C)C[C@H](NC(=O)CNC(=O)[C@@H](N)CO)C(=O)N[C@@H](CCCCN)C(=O)N[C@@H](CCCNC(=N)N)C(=O)N[C@@H](CC(N)=O)C(=O)O
REMARK SMILES IDX 17 1 18 2 19 3 5 5 6 6 7 7 8 8 9 10 10 11 11 12 12 13 13 15
REMARK SMILES IDX 14 16 15 19 16 20 4 22 2 23 1 24 3 25 20 26 26 27 28 28
REMARK SMILES IDX 27 29 29 31 37 32 39 33 38 34 40 36 45 37 46 38 47 39 41 41
REMARK SMILES IDX 42 42 43 43 44 44 30 47 31 48 32 49 33 50 34 51 36 52 35 56
REMARK SMILES IDX 21 58 22 59 23 60 24 61 25 62
REMARK H PARENT 19 4 6 9 10 14 14 17 14 18 16 21 28 30 39 35 47 40 43 45 43 46
REMARK H PARENT 33 53 36 54 36 55 35 57 25 63 25 64
ROOT
ATOM      1  C   LEU A   3      20.039  10.073  -6.468  1.00  0.00     0.243 C 
ATOM      2  O   LEU A   3      20.162   9.148  -5.619  1.00  0.00    -0.273 OA
ATOM      3  N   LYS A   4      20.566   9.923  -7.776  1.00  0.00    -0.343 N 
ATOM      4  H   UNL     1      20.404  10.669  -8.491  1.00  0.00     0.164 HD
ENDROOT
BRANCH   1   5
ATOM      5  CA  LEU A   3      19.308  11.327  -6.129  1.00  0.00     0.171 C 
BRANCH   5   6
ATOM      6  N   LEU A   3      18.033  10.982  -5.535  1.00  0.00    -0.343 N 
ATOM      7  C   GLY A   2      16.866  11.759  -5.738  1.00  0.00     0.240 C 
ATOM      8  O   GLY A   2      16.902  12.807  -6.440  1.00  0.00    -0.273 OA
ATOM      9  H   UNL     1      17.989  10.192  -4.850  1.00  0.00     0.164 HD
BRANCH   7  10
ATOM     10  CA  GLY A   2      15.630  11.330  -5.023  1.00  0.00     0.216 C 
BRANCH  10  11
ATOM     11  N   GLY A   2      14.439  11.726  -5.742  1.00  0.00    -0.346 N 
ATOM     12  C   SER A   1      13.909  13.043  -5.629  1.00  0.00     0.239 C 
ATOM     13  O   SER A   1      14.446  13.868  -4.838  1.00  0.00    -0.273 OA
ATOM     14  H   UNL     1      13.858  10.960  -6.148  1.00  0.00     0.164 HD
BRANCH  12  15
ATOM     15  CA  SER A   1      12.657  13.409  -6.387  1.00  0.00     0.167 C 
BRANCH  15  16
ATOM     16  N   SER A   1      12.458  14.860  -6.403  1.00  0.00    -0.318 NA
ATOM     17  H   UNL     1      13.321  15.330  -6.764  1.00  0.00     0.119 HD
ATOM     18  H   UNL     1      12.292  15.194  -5.425  1.00  0.00     0.119 HD
ENDBRANCH  15  16
BRANCH  15  19
ATOM     19  CB  SER A   1      12.693  12.878  -7.835  1.00  0.00     0.184 C 
BRANCH  19  20
ATOM     20  OG  SER A   1      11.442  13.042  -8.446  1.00  0.00    -0.394 OA
ATOM     21  H   UNL     1      11.398  13.982  -8.760  1.00  0.00     0.210 HD
ENDBRANCH  19  20
ENDBRANCH  15  19
ENDBRANCH  12  15
ENDBRANCH  10  11
ENDBRANCH   7  10
ENDBRANCH   5   6
BRANCH   5  22
ATOM     22  CB  LEU A   3      20.132  12.238  -5.209  1.00  0.00     0.038 C 
BRANCH  22  23
ATOM     23  CG  LEU A   3      20.405  11.669  -3.790  1.00  0.00    -0.015 C 
ATOM     24  CD1 LEU A   3      21.807  12.071  -3.321  1.00  0.00     0.007 C 
ATOM     25  CD2 LEU A   3      19.353  12.145  -2.781  1.00  0.00     0.007 C 
ENDBRANCH  22  23
ENDBRANCH   5  22
ENDBRANCH   1   5
BRANCH   3  26
ATOM     26  CA  LYS A   4      21.348   8.762  -8.148  1.00  0.00     0.171 C 
BRANCH  26  27
ATOM     27  C   LYS A   4      22.714   9.217  -8.524  1.00  0.00     0.243 C 
ATOM     28  N   ARG A   5      23.822   8.721  -7.787  1.00  0.00    -0.343 N 
ATOM     29  O   LYS A   4      22.880  10.035  -9.470  1.00  0.00    -0.273 OA
ATOM     30  H   UNL     1      23.665   8.029  -7.018  1.00  0.00     0.164 HD
BRANCH  28  31
ATOM     31  CA  ARG A   5      25.186   9.122  -8.073  1.00  0.00     0.171 C 
BRANCH  31  32
ATOM     32  C   ARG A   5      25.900   7.968  -8.685  1.00  0.00     0.243 C 
ATOM     33  N   ASN A   6      25.913   7.864 -10.102  1.00  0.00    -0.341 N 
ATOM     34  O   ARG A   5      26.447   7.087  -7.969  1.00  0.00    -0.273 OA
ATOM     35  H   UNL     1      25.489   8.647 -10.651  1.00  0.00     0.164 HD
BRANCH  33  36
ATOM     36  CA  ASN A   6      26.542   6.751 -10.804  1.00  0.00     0.201 C 
BRANCH  36  37
ATOM     37  C   ASN A   6      27.993   6.642 -10.416  1.00  0.00     0.326 C 
ATOM     38  O   ASN A   6      28.794   7.579 -10.677  1.00  0.00    -0.250 OA
BRANCH  37  39
ATOM     39  OXT ASN A   6      28.451   5.499  -9.768  1.00  0.00    -0.480 OA
ATOM     40  H   UNL     1      29.424   5.409  -9.499  1.00  0.00     0.296 HD
ENDBRANCH  37  39
ENDBRANCH  36  37
BRANCH  36  41
ATOM     41  CB  ASN A   6      26.425   6.947 -12.323  1.00  0.00     0.136 C 
BRANCH  41  42
ATOM     42  CG  ASN A   6      25.010   7.181 -12.773  1.00  0.00     0.220 C 
ATOM     43  ND2 ASN A   6      24.754   8.091 -13.834  1.00  0.00    -0.370 N 
ATOM     44  OD1 ASN A   6      24.053   6.558 -12.243  1.00  0.00    -0.275 OA
ATOM     45  H   UNL     1      23.775   8.258 -14.157  1.00  0.00     0.159 HD
ATOM     46  H   UNL     1      25.533   8.600 -14.306  1.00  0.00     0.159 HD
ENDBRANCH  41  42
ENDBRANCH  36  41
ENDBRANCH  33  36
ENDBRANCH  31  32
BRANCH  31  47
ATOM     47  CB  ARG A   5      25.862   9.605  -6.795  1.00  0.00     0.037 C 
BRANCH  47  48
ATOM     48  CG  ARG A   5      25.166  10.861  -6.271  1.00  0.00     0.024 C 
BRANCH  48  49
ATOM     49  CD  ARG A   5      25.839  11.392  -5.014  1.00  0.00     0.116 C 
BRANCH  49  50
ATOM     50  NE  ARG A   5      25.377  10.684  -3.823  1.00  0.00    -0.357 N 
ATOM     51  CZ  ARG A   5      25.468  11.279  -2.527  1.00  0.00     0.185 C 
ATOM     52  NH2 ARG A   5      26.105  12.541  -2.350  1.00  0.00    -0.370 N 
ATOM     53  H   UNL     1      24.899   9.760  -3.922  1.00  0.00     0.163 HD
ATOM     54  H   UNL     1      26.692  12.983  -3.090  1.00  0.00     0.159 HD
ATOM     55  H   UNL     1      26.081  13.007  -1.415  1.00  0.00     0.159 HD
BRANCH  51  56
ATOM     56  NH1 ARG A   5      24.956  10.679  -1.500  1.00  0.00    -0.270 NA
ATOM     57  H   UNL     1      24.474   9.757  -1.584  1.00  0.00     0.191 HD
ENDBRANCH  51  56
ENDBRANCH  49  50
ENDBRANCH  48  49
ENDBRANCH  47  48
ENDBRANCH  31  47
ENDBRANCH  28  31
ENDBRANCH  26  27
BRANCH  26  58
ATOM     58  CB  LYS A   4      20.658   8.009  -9.287  1.00  0.00     0.035 C 
BRANCH  58  59
ATOM     59  CG  LYS A   4      21.439   6.771  -9.762  1.00  0.00     0.004 C 
BRANCH  59  60
ATOM     60  CD  LYS A   4      21.774   5.755  -8.655  1.00  0.00     0.015 C 
BRANCH  60  61
ATOM     61  CE  LYS A   4      20.555   5.206  -7.899  1.00  0.00     0.077 C 
BRANCH  61  62
ATOM     62  NZ  LYS A   4      19.661   4.482  -8.800  1.00  0.00    -0.330 NA
ATOM     63  H   UNL     1      19.086   5.180  -9.324  1.00  0.00     0.118 HD
ATOM     64  H   UNL     1      18.988   3.939  -8.212  1.00  0.00     0.118 HD
ENDBRANCH  61  62
ENDBRANCH  60  61
ENDBRANCH  59  60
ENDBRANCH  58  59
ENDBRANCH  26  58
ENDBRANCH   3  26
TORSDOF 29
