REMARK SMILES CC(C)C[C@H](NC(=O)[C@H](Cc1c[nH]cn1)NC(=O)[C@H](Cc1ccccc1)NC(=O)[C@@H](N)CO)C(=O)NCC(=O)N[C@@H](CC(N)=O)C(=O)O
REMARK SMILES IDX 7 1 8 2 6 3 9 5 16 6 17 7 18 8 19 10 27 11 28 12 29 13 30 15
REMARK SMILES IDX 31 16 32 19 33 20 20 22 21 23 22 24 26 25 23 26 25 27 24 28
REMARK SMILES IDX 10 29 11 30 15 31 12 32 14 33 13 34 5 36 34 37 36 38 35 39
REMARK SMILES IDX 37 41 38 42 40 43 39 44 41 46 46 47 47 48 48 49 42 51 43 52
REMARK SMILES IDX 44 53 45 54 4 57 2 58 1 59 3 60
REMARK H PARENT 6 4 16 9 27 14 31 17 31 18 33 21 13 35 36 40 40 45 48 50 44 55
REMARK H PARENT 44 56
ROOT
ATOM      1  C   HIS A   3       0.253  -2.379  -0.157  1.00  0.00     0.243 C 
ATOM      2  O   HIS A   3       0.251  -3.079   0.890  1.00  0.00    -0.273 OA
ATOM      3  N   LEU A   4       1.493  -1.909  -0.707  1.00  0.00    -0.342 N 
ATOM      4  H   UNL     1       1.461  -1.302  -1.558  1.00  0.00     0.164 HD
ENDROOT
BRANCH   1   5
ATOM      5  CA  HIS A   3      -1.063  -2.029  -0.803  1.00  0.00     0.177 C 
BRANCH   5   6
ATOM      6  N   HIS A   3      -1.333  -0.598  -0.624  1.00  0.00    -0.342 N 
ATOM      7  C   PHE A   2      -2.629  -0.106  -0.252  1.00  0.00     0.243 C 
ATOM      8  O   PHE A   2      -3.641  -0.855  -0.355  1.00  0.00    -0.273 OA
ATOM      9  H   UNL     1      -0.559   0.087  -0.774  1.00  0.00     0.164 HD
BRANCH   7  10
ATOM     10  CA  PHE A   2      -2.764   1.264   0.374  1.00  0.00     0.175 C 
BRANCH  10  11
ATOM     11  N   PHE A   2      -4.036   1.901  -0.001  1.00  0.00    -0.343 N 
ATOM     12  C   SER A   1      -4.308   3.289   0.259  1.00  0.00     0.239 C 
ATOM     13  O   SER A   1      -3.395   4.032   0.714  1.00  0.00    -0.273 OA
ATOM     14  H   UNL     1      -4.768   1.339  -0.492  1.00  0.00     0.164 HD
BRANCH  12  15
ATOM     15  CA  SER A   1      -5.656   3.889  -0.090  1.00  0.00     0.167 C 
BRANCH  15  16
ATOM     16  N   SER A   1      -6.715   2.879   0.011  1.00  0.00    -0.318 NA
ATOM     17  H   UNL     1      -6.821   2.577   1.008  1.00  0.00     0.119 HD
ATOM     18  H   UNL     1      -7.623   3.308  -0.283  1.00  0.00     0.119 HD
ENDBRANCH  15  16
BRANCH  15  19
ATOM     19  CB  SER A   1      -5.991   5.120   0.779  1.00  0.00     0.184 C 
BRANCH  19  20
ATOM     20  OG  SER A   1      -6.021   4.768   2.138  1.00  0.00    -0.394 OA
ATOM     21  H   UNL     1      -6.219   5.605   2.634  1.00  0.00     0.210 HD
ENDBRANCH  19  20
ENDBRANCH  15  19
ENDBRANCH  12  15
ENDBRANCH  10  11
BRANCH  10  22
ATOM     22  CB  PHE A   2      -2.613   1.166   1.910  1.00  0.00     0.070 C 
BRANCH  22  23
ATOM     23  CG  PHE A   2      -3.727   0.380   2.565  1.00  0.00    -0.045 A 
ATOM     24  CD1 PHE A   2      -3.609  -1.011   2.732  1.00  0.00     0.004 A 
ATOM     25  CD2 PHE A   2      -4.900   1.026   2.990  1.00  0.00     0.004 A 
ATOM     26  CE1 PHE A   2      -4.653  -1.743   3.306  1.00  0.00     0.000 A 
ATOM     27  CE2 PHE A   2      -5.939   0.291   3.571  1.00  0.00     0.000 A 
ATOM     28  CZ  PHE A   2      -5.814  -1.093   3.730  1.00  0.00     0.000 A 
ENDBRANCH  22  23
ENDBRANCH  10  22
ENDBRANCH   7  10
ENDBRANCH   5   6
BRANCH   5  29
ATOM     29  CB  HIS A   3      -1.070  -2.404  -2.297  1.00  0.00     0.093 C 
BRANCH  29  30
ATOM     30  CG  HIS A   3      -2.453  -2.319  -2.873  1.00  0.00     0.061 A 
ATOM     31  ND1 HIS A   3      -2.920  -1.261  -3.570  1.00  0.00    -0.242 NA
ATOM     32  CD2 HIS A   3      -3.453  -3.254  -2.710  1.00  0.00     0.107 A 
ATOM     33  CE1 HIS A   3      -4.205  -1.589  -3.826  1.00  0.00     0.196 A 
ATOM     34  NE2 HIS A   3      -4.552  -2.788  -3.319  1.00  0.00    -0.351 N 
ATOM     35  H   UNL     1      -5.486  -3.252  -3.376  1.00  0.00     0.167 HD
ENDBRANCH  29  30
ENDBRANCH   5  29
ENDBRANCH   1   5
BRANCH   3  36
ATOM     36  CA  LEU A   4       2.802  -2.405  -0.267  1.00  0.00     0.171 C 
BRANCH  36  37
ATOM     37  C   LEU A   4       3.784  -1.261  -0.187  1.00  0.00     0.243 C 
ATOM     38  N   GLY A   5       4.695  -1.166   0.918  1.00  0.00    -0.345 N 
ATOM     39  O   LEU A   4       3.838  -0.415  -1.122  1.00  0.00    -0.273 OA
ATOM     40  H   UNL     1       4.614  -1.848   1.705  1.00  0.00     0.164 HD
BRANCH  38  41
ATOM     41  CA  GLY A   5       5.838  -0.254   0.913  1.00  0.00     0.216 C 
BRANCH  41  42
ATOM     42  C   GLY A   5       5.382   1.163   1.099  1.00  0.00     0.240 C 
ATOM     43  N   ASN A   6       5.412   2.081  -0.004  1.00  0.00    -0.341 N 
ATOM     44  O   GLY A   5       4.970   1.539   2.229  1.00  0.00    -0.273 OA
ATOM     45  H   UNL     1       5.755   1.724  -0.925  1.00  0.00     0.164 HD
BRANCH  43  46
ATOM     46  CA  ASN A   6       5.163   3.519   0.154  1.00  0.00     0.201 C 
BRANCH  46  47
ATOM     47  C   ASN A   6       4.536   4.095  -1.089  1.00  0.00     0.326 C 
ATOM     48  O   ASN A   6       4.940   3.752  -2.232  1.00  0.00    -0.250 OA
BRANCH  47  49
ATOM     49  OXT ASN A   6       3.529   5.050  -0.972  1.00  0.00    -0.480 OA
ATOM     50  H   UNL     1       3.104   5.456  -1.795  1.00  0.00     0.296 HD
ENDBRANCH  47  49
ENDBRANCH  46  47
BRANCH  46  51
ATOM     51  CB  ASN A   6       6.463   4.260   0.524  1.00  0.00     0.136 C 
BRANCH  51  52
ATOM     52  CG  ASN A   6       7.569   4.030  -0.471  1.00  0.00     0.220 C 
ATOM     53  ND2 ASN A   6       8.414   2.882  -0.366  1.00  0.00    -0.370 N 
ATOM     54  OD1 ASN A   6       7.720   4.833  -1.432  1.00  0.00    -0.275 OA
ATOM     55  H   UNL     1       8.292   2.203   0.416  1.00  0.00     0.159 HD
ATOM     56  H   UNL     1       9.147   2.692  -1.084  1.00  0.00     0.159 HD
ENDBRANCH  51  52
ENDBRANCH  46  51
ENDBRANCH  43  46
ENDBRANCH  41  42
ENDBRANCH  38  41
ENDBRANCH  36  37
BRANCH  36  57
ATOM     57  CB  LEU A   4       3.336  -3.466  -1.255  1.00  0.00     0.038 C 
BRANCH  57  58
ATOM     58  CG  LEU A   4       2.474  -4.750  -1.343  1.00  0.00    -0.015 C 
ATOM     59  CD1 LEU A   4       2.559  -5.589  -0.059  1.00  0.00     0.007 C 
ATOM     60  CD2 LEU A   4       2.919  -5.597  -2.543  1.00  0.00     0.007 C 
ENDBRANCH  57  58
ENDBRANCH  36  57
ENDBRANCH   3  36
TORSDOF 23
