REMARK SMILES CC(C)C[C@H](NC(=O)[C@H](Cc1c[nH]cn1)NC(=O)[C@H](Cc1ccccc1)NC(=O)[C@@H](N)CO)C(=O)N[C@@H](CC(N)=O)C(=O)N[C@@H](CC(N)=O)C(=O)O
REMARK SMILES IDX 7 1 8 2 6 3 9 5 16 6 17 7 18 8 19 10 27 11 28 12 29 13 30 15
REMARK SMILES IDX 31 16 32 19 33 20 20 22 21 23 22 24 26 25 23 26 25 27 24 28
REMARK SMILES IDX 10 29 11 30 15 31 12 32 14 33 13 34 5 36 34 37 36 38 35 39
REMARK SMILES IDX 37 41 42 42 44 43 43 44 45 46 50 47 51 48 52 49 46 51 47 52
REMARK SMILES IDX 48 53 49 54 38 57 39 58 40 59 41 60 4 63 2 64 1 65 3 66
REMARK H PARENT 6 4 16 9 27 14 31 17 31 18 33 21 13 35 36 40 44 45 52 50 48 55
REMARK H PARENT 48 56 40 61 40 62
ROOT
ATOM      1  C   HIS A   3      20.051  10.095  -6.460  1.00  0.00     0.243 C 
ATOM      2  O   HIS A   3      20.169   9.181  -5.595  1.00  0.00    -0.273 OA
ATOM      3  N   LEU A   4      20.563   9.921  -7.771  1.00  0.00    -0.342 N 
ATOM      4  H   UNL     1      20.396  10.659  -8.494  1.00  0.00     0.164 HD
ENDROOT
BRANCH   1   5
ATOM      5  CA  HIS A   3      19.348  11.367  -6.131  1.00  0.00     0.177 C 
BRANCH   5   6
ATOM      6  N   HIS A   3      18.090  11.044  -5.509  1.00  0.00    -0.342 N 
ATOM      7  C   PHE A   2      16.888  11.749  -5.774  1.00  0.00     0.243 C 
ATOM      8  O   PHE A   2      16.903  12.793  -6.482  1.00  0.00    -0.273 OA
ATOM      9  H   UNL     1      18.164  10.480  -4.637  1.00  0.00     0.164 HD
BRANCH   7  10
ATOM     10  CA  PHE A   2      15.653  11.313  -5.058  1.00  0.00     0.175 C 
BRANCH  10  11
ATOM     11  N   PHE A   2      14.456  11.739  -5.767  1.00  0.00    -0.343 N 
ATOM     12  C   SER A   1      13.917  13.048  -5.634  1.00  0.00     0.239 C 
ATOM     13  O   SER A   1      14.447  13.867  -4.833  1.00  0.00    -0.273 OA
ATOM     14  H   UNL     1      13.869  10.999  -6.211  1.00  0.00     0.164 HD
BRANCH  12  15
ATOM     15  CA  SER A   1      12.661  13.410  -6.390  1.00  0.00     0.167 C 
BRANCH  15  16
ATOM     16  N   SER A   1      12.454  14.859  -6.401  1.00  0.00    -0.318 NA
ATOM     17  H   UNL     1      12.284  15.188  -5.423  1.00  0.00     0.119 HD
ATOM     18  H   UNL     1      13.315  15.336  -6.757  1.00  0.00     0.119 HD
ENDBRANCH  15  16
BRANCH  15  19
ATOM     19  CB  SER A   1      12.693  12.886  -7.842  1.00  0.00     0.184 C 
BRANCH  19  20
ATOM     20  OG  SER A   1      11.438  13.058  -8.437  1.00  0.00    -0.394 OA
ATOM     21  H   UNL     1      11.539  12.785  -9.386  1.00  0.00     0.210 HD
ENDBRANCH  19  20
ENDBRANCH  15  19
ENDBRANCH  12  15
ENDBRANCH  10  11
BRANCH  10  22
ATOM     22  CB  PHE A   2      15.614   9.773  -4.888  1.00  0.00     0.070 C 
BRANCH  22  23
ATOM     23  CG  PHE A   2      14.443   9.290  -4.090  1.00  0.00    -0.045 A 
ATOM     24  CD1 PHE A   2      13.903  10.047  -3.033  1.00  0.00     0.004 A 
ATOM     25  CD2 PHE A   2      13.968   7.990  -4.310  1.00  0.00     0.004 A 
ATOM     26  CE1 PHE A   2      12.869   9.536  -2.260  1.00  0.00     0.000 A 
ATOM     27  CE2 PHE A   2      12.939   7.477  -3.521  1.00  0.00     0.000 A 
ATOM     28  CZ  PHE A   2      12.386   8.253  -2.502  1.00  0.00     0.000 A 
ENDBRANCH  22  23
ENDBRANCH  10  22
ENDBRANCH   7  10
ENDBRANCH   5   6
BRANCH   5  29
ATOM     29  CB  HIS A   3      20.182  12.259  -5.200  1.00  0.00     0.093 C 
BRANCH  29  30
ATOM     30  CG  HIS A   3      20.397  11.679  -3.826  1.00  0.00     0.061 A 
ATOM     31  ND1 HIS A   3      21.398  10.834  -3.506  1.00  0.00    -0.242 NA
ATOM     32  CD2 HIS A   3      19.599  11.896  -2.724  1.00  0.00     0.107 A 
ATOM     33  CE1 HIS A   3      21.186  10.558  -2.202  1.00  0.00     0.196 A 
ATOM     34  NE2 HIS A   3      20.104  11.186  -1.704  1.00  0.00    -0.351 N 
ATOM     35  H   UNL     1      19.733  11.129  -0.730  1.00  0.00     0.167 HD
ENDBRANCH  29  30
ENDBRANCH   5  29
ENDBRANCH   1   5
BRANCH   3  36
ATOM     36  CA  LEU A   4      21.349   8.760  -8.138  1.00  0.00     0.171 C 
BRANCH  36  37
ATOM     37  C   LEU A   4      22.714   9.218  -8.518  1.00  0.00     0.243 C 
ATOM     38  N   ASN A   5      23.823   8.734  -7.775  1.00  0.00    -0.342 N 
ATOM     39  O   LEU A   4      22.877  10.031  -9.469  1.00  0.00    -0.273 OA
ATOM     40  H   UNL     1      23.670   8.041  -7.007  1.00  0.00     0.164 HD
BRANCH  38  41
ATOM     41  CA  ASN A   5      25.187   9.138  -8.063  1.00  0.00     0.180 C 
BRANCH  41  42
ATOM     42  C   ASN A   5      25.901   7.979  -8.680  1.00  0.00     0.243 C 
ATOM     43  N   ASN A   6      25.912   7.872 -10.098  1.00  0.00    -0.340 N 
ATOM     44  O   ASN A   5      26.446   7.096  -7.964  1.00  0.00    -0.273 OA
ATOM     45  H   UNL     1      25.486   8.653 -10.647  1.00  0.00     0.164 HD
BRANCH  43  46
ATOM     46  CA  ASN A   6      26.539   6.755 -10.799  1.00  0.00     0.201 C 
BRANCH  46  47
ATOM     47  C   ASN A   6      27.990   6.644 -10.412  1.00  0.00     0.326 C 
ATOM     48  O   ASN A   6      28.794   7.578 -10.677  1.00  0.00    -0.250 OA
BRANCH  47  49
ATOM     49  OXT ASN A   6      28.447   5.502  -9.762  1.00  0.00    -0.480 OA
ATOM     50  H   UNL     1      29.419   5.410  -9.494  1.00  0.00     0.296 HD
ENDBRANCH  47  49
ENDBRANCH  46  47
BRANCH  46  51
ATOM     51  CB  ASN A   6      26.423   6.949 -12.320  1.00  0.00     0.136 C 
BRANCH  51  52
ATOM     52  CG  ASN A   6      25.009   7.181 -12.772  1.00  0.00     0.220 C 
ATOM     53  ND2 ASN A   6      24.753   8.090 -13.833  1.00  0.00    -0.370 N 
ATOM     54  OD1 ASN A   6      24.052   6.558 -12.243  1.00  0.00    -0.275 OA
ATOM     55  H   UNL     1      23.775   8.256 -14.158  1.00  0.00     0.159 HD
ATOM     56  H   UNL     1      25.533   8.600 -14.305  1.00  0.00     0.159 HD
ENDBRANCH  51  52
ENDBRANCH  46  51
ENDBRANCH  43  46
ENDBRANCH  41  42
BRANCH  41  57
ATOM     57  CB  ASN A   5      25.866   9.627  -6.785  1.00  0.00     0.134 C 
BRANCH  57  58
ATOM     58  CG  ASN A   5      25.173  10.846  -6.245  1.00  0.00     0.220 C 
ATOM     59  ND2 ASN A   5      24.103  10.721  -5.310  1.00  0.00    -0.370 N 
ATOM     60  OD1 ASN A   5      25.516  11.989  -6.650  1.00  0.00    -0.275 OA
ATOM     61  H   UNL     1      23.623  11.574  -4.949  1.00  0.00     0.159 HD
ATOM     62  H   UNL     1      23.787   9.782  -4.981  1.00  0.00     0.159 HD
ENDBRANCH  57  58
ENDBRANCH  41  57
ENDBRANCH  38  41
ENDBRANCH  36  37
BRANCH  36  63
ATOM     63  CB  LEU A   4      20.656   7.999  -9.271  1.00  0.00     0.038 C 
BRANCH  63  64
ATOM     64  CG  LEU A   4      21.449   6.771  -9.768  1.00  0.00    -0.015 C 
ATOM     65  CD1 LEU A   4      21.763   5.779  -8.638  1.00  0.00     0.007 C 
ATOM     66  CD2 LEU A   4      20.662   6.067 -10.877  1.00  0.00     0.007 C 
ENDBRANCH  63  64
ENDBRANCH  36  63
ENDBRANCH   3  36
TORSDOF 25
