REMARK SMILES CC[C@H](C)[C@H](NC(=O)[C@@H](N)CO)C(=O)N[C@@H](CC(C)C)C(=O)N[C@@H](CCCNC(=N)N)C(=O)N[C@@H](CCCNC(=N)N)C(=O)N[C@@H](CC(N)=O)C(=O)O
REMARK SMILES IDX 21 1 22 2 23 3 16 5 15 6 13 7 14 8 5 10 6 11 7 12 8 13 9 15
REMARK SMILES IDX 10 16 11 19 12 20 3 22 4 23 2 24 1 25 17 26 18 27 19 28
REMARK SMILES IDX 20 29 24 30 32 31 34 32 33 33 35 35 43 36 45 37 44 38 46 40
REMARK SMILES IDX 51 41 52 42 53 43 47 45 48 46 49 47 50 48 36 51 37 52 38 53
REMARK SMILES IDX 39 54 40 55 42 56 41 60 25 62 26 63 27 64 28 65 29 66 31 67
REMARK SMILES IDX 30 71
REMARK H PARENT 23 4 15 9 6 14 10 17 10 18 12 21 34 34 45 39 53 44 49 49 49 50
REMARK H PARENT 39 57 42 58 42 59 41 61 28 68 31 69 31 70 30 72
ROOT
ATOM      1  C   LEU A   3      20.058  10.090  -6.437  1.00  0.00     0.243 C 
ATOM      2  O   LEU A   3      20.196   9.188  -5.566  1.00  0.00    -0.273 OA
ATOM      3  N   ARG A   4      20.563   9.917  -7.755  1.00  0.00    -0.343 N 
ATOM      4  H   UNL     1      20.393  10.655  -8.476  1.00  0.00     0.164 HD
ENDROOT
BRANCH   1   5
ATOM      5  CA  LEU A   3      19.326  11.345  -6.121  1.00  0.00     0.171 C 
BRANCH   5   6
ATOM      6  N   LEU A   3      18.082  11.039  -5.470  1.00  0.00    -0.343 N 
ATOM      7  C   ILE A   2      16.873  11.737  -5.741  1.00  0.00     0.243 C 
ATOM      8  O   ILE A   2      16.887  12.782  -6.451  1.00  0.00    -0.273 OA
ATOM      9  H   UNL     1      18.141  10.395  -4.658  1.00  0.00     0.164 HD
BRANCH   7  10
ATOM     10  CA  ILE A   2      15.616  11.253  -5.075  1.00  0.00     0.174 C 
BRANCH  10  11
ATOM     11  N   ILE A   2      14.425  11.733  -5.765  1.00  0.00    -0.343 N 
ATOM     12  C   SER A   1      13.919  13.054  -5.637  1.00  0.00     0.239 C 
ATOM     13  O   SER A   1      14.459  13.866  -4.837  1.00  0.00    -0.273 OA
ATOM     14  H   UNL     1      13.751  11.030  -6.130  1.00  0.00     0.164 HD
BRANCH  12  15
ATOM     15  CA  SER A   1      12.665  13.422  -6.388  1.00  0.00     0.167 C 
BRANCH  15  16
ATOM     16  N   SER A   1      12.478  14.873  -6.374  1.00  0.00    -0.318 NA
ATOM     17  H   UNL     1      11.549  15.099  -6.799  1.00  0.00     0.119 HD
ATOM     18  H   UNL     1      13.214  15.327  -6.963  1.00  0.00     0.119 HD
ENDBRANCH  15  16
BRANCH  15  19
ATOM     19  CB  SER A   1      12.692  12.890  -7.845  1.00  0.00     0.184 C 
BRANCH  19  20
ATOM     20  OG  SER A   1      11.437  13.043  -8.448  1.00  0.00    -0.394 OA
ATOM     21  H   UNL     1      10.844  12.352  -8.052  1.00  0.00     0.210 HD
ENDBRANCH  19  20
ENDBRANCH  15  19
ENDBRANCH  12  15
ENDBRANCH  10  11
BRANCH  10  22
ATOM     22  CB  ILE A   2      15.566   9.689  -4.948  1.00  0.00     0.018 C 
ATOM     23  CG1 ILE A   2      14.405   9.274  -4.042  1.00  0.00     0.010 C 
BRANCH  22  24
ATOM     24  CG2 ILE A   2      15.478   8.897  -6.293  1.00  0.00     0.002 C 
ATOM     25  CD1 ILE A   2      16.808   8.750  -7.032  1.00  0.00     0.004 C 
ENDBRANCH  22  24
ENDBRANCH  10  22
ENDBRANCH   7  10
ENDBRANCH   5   6
BRANCH   5  26
ATOM     26  CB  LEU A   3      20.157  12.345  -5.311  1.00  0.00     0.038 C 
BRANCH  26  27
ATOM     27  CG  LEU A   3      20.436  12.207  -3.787  1.00  0.00    -0.015 C 
ATOM     28  CD1 LEU A   3      21.824  11.746  -3.388  1.00  0.00     0.007 C 
ATOM     29  CD2 LEU A   3      19.306  11.898  -2.816  1.00  0.00     0.007 C 
ENDBRANCH  26  27
ENDBRANCH   5  26
ENDBRANCH   1   5
BRANCH   3  30
ATOM     30  CA  ARG A   4      21.345   8.758  -8.134  1.00  0.00     0.171 C 
BRANCH  30  31
ATOM     31  C   ARG A   4      22.711   9.215  -8.516  1.00  0.00     0.243 C 
ATOM     32  N   ARG A   5      23.821   8.718  -7.783  1.00  0.00    -0.343 N 
ATOM     33  O   ARG A   4      22.874  10.031  -9.464  1.00  0.00    -0.273 OA
ATOM     34  H   UNL     1      23.667   8.028  -7.013  1.00  0.00     0.164 HD
BRANCH  32  35
ATOM     35  CA  ARG A   5      25.184   9.121  -8.072  1.00  0.00     0.171 C 
BRANCH  35  36
ATOM     36  C   ARG A   5      25.899   7.968  -8.685  1.00  0.00     0.243 C 
ATOM     37  N   ASN A   6      25.913   7.864 -10.102  1.00  0.00    -0.341 N 
ATOM     38  O   ARG A   5      26.447   7.087  -7.969  1.00  0.00    -0.273 OA
ATOM     39  H   UNL     1      25.489   8.647 -10.651  1.00  0.00     0.164 HD
BRANCH  37  40
ATOM     40  CA  ASN A   6      26.542   6.751 -10.804  1.00  0.00     0.201 C 
BRANCH  40  41
ATOM     41  C   ASN A   6      27.993   6.642 -10.415  1.00  0.00     0.326 C 
ATOM     42  O   ASN A   6      28.794   7.579 -10.677  1.00  0.00    -0.250 OA
BRANCH  41  43
ATOM     43  OXT ASN A   6      28.451   5.499  -9.768  1.00  0.00    -0.480 OA
ATOM     44  H   UNL     1      29.424   5.409  -9.499  1.00  0.00     0.296 HD
ENDBRANCH  41  43
ENDBRANCH  40  41
BRANCH  40  45
ATOM     45  CB  ASN A   6      26.425   6.947 -12.323  1.00  0.00     0.136 C 
BRANCH  45  46
ATOM     46  CG  ASN A   6      25.011   7.181 -12.773  1.00  0.00     0.220 C 
ATOM     47  ND2 ASN A   6      24.754   8.091 -13.834  1.00  0.00    -0.370 N 
ATOM     48  OD1 ASN A   6      24.053   6.558 -12.243  1.00  0.00    -0.275 OA
ATOM     49  H   UNL     1      25.533   8.600 -14.306  1.00  0.00     0.159 HD
ATOM     50  H   UNL     1      23.775   8.258 -14.157  1.00  0.00     0.159 HD
ENDBRANCH  45  46
ENDBRANCH  40  45
ENDBRANCH  37  40
ENDBRANCH  35  36
BRANCH  35  51
ATOM     51  CB  ARG A   5      25.862   9.606  -6.796  1.00  0.00     0.037 C 
BRANCH  51  52
ATOM     52  CG  ARG A   5      25.165  10.861  -6.271  1.00  0.00     0.024 C 
BRANCH  52  53
ATOM     53  CD  ARG A   5      25.839  11.392  -5.014  1.00  0.00     0.116 C 
BRANCH  53  54
ATOM     54  NE  ARG A   5      25.376  10.685  -3.823  1.00  0.00    -0.357 N 
ATOM     55  CZ  ARG A   5      25.467  11.279  -2.527  1.00  0.00     0.185 C 
ATOM     56  NH2 ARG A   5      26.105  12.541  -2.350  1.00  0.00    -0.370 N 
ATOM     57  H   UNL     1      24.895   9.761  -3.922  1.00  0.00     0.163 HD
ATOM     58  H   UNL     1      26.082  13.007  -1.415  1.00  0.00     0.159 HD
ATOM     59  H   UNL     1      26.692  12.982  -3.090  1.00  0.00     0.159 HD
BRANCH  55  60
ATOM     60  NH1 ARG A   5      24.956  10.679  -1.500  1.00  0.00    -0.270 NA
ATOM     61  H   UNL     1      24.473   9.757  -1.584  1.00  0.00     0.191 HD
ENDBRANCH  55  60
ENDBRANCH  53  54
ENDBRANCH  52  53
ENDBRANCH  51  52
ENDBRANCH  35  51
ENDBRANCH  32  35
ENDBRANCH  30  31
BRANCH  30  62
ATOM     62  CB  ARG A   4      20.654   8.009  -9.276  1.00  0.00     0.037 C 
BRANCH  62  63
ATOM     63  CG  ARG A   4      21.432   6.771  -9.762  1.00  0.00     0.024 C 
BRANCH  63  64
ATOM     64  CD  ARG A   4      21.775   5.761  -8.654  1.00  0.00     0.116 C 
BRANCH  64  65
ATOM     65  NE  ARG A   4      20.577   5.254  -7.979  1.00  0.00    -0.357 N 
ATOM     66  CZ  ARG A   4      20.623   4.418  -6.810  1.00  0.00     0.185 C 
ATOM     67  NH2 ARG A   4      19.407   4.077  -6.145  1.00  0.00    -0.370 N 
ATOM     68  H   UNL     1      19.633   5.499  -8.355  1.00  0.00     0.163 HD
ATOM     69  H   UNL     1      18.491   4.439  -6.492  1.00  0.00     0.159 HD
ATOM     70  H   UNL     1      19.418   3.467  -5.297  1.00  0.00     0.159 HD
BRANCH  66  71
ATOM     71  NH1 ARG A   4      21.744   3.957  -6.349  1.00  0.00    -0.270 NA
ATOM     72  H   UNL     1      22.672   4.153  -6.784  1.00  0.00     0.191 HD
ENDBRANCH  66  71
ENDBRANCH  64  65
ENDBRANCH  63  64
ENDBRANCH  62  63
ENDBRANCH  30  62
ENDBRANCH   3  30
TORSDOF 31
