REMARK SMILES CC(C)C[C@H](NC(=O)[C@H](CCC(N)=O)NC(=O)[C@@H](N)CO)C(=O)NCC(=O)N[C@@H](CCCNC(=N)N)C(=O)N[C@@H](CC(N)=O)C(=O)O
REMARK SMILES IDX 22 1 23 2 24 3 5 5 6 6 7 7 8 8 9 10 15 11 16 12 17 13 18 15
REMARK SMILES IDX 19 16 20 19 21 20 10 22 11 23 12 24 13 25 14 26 4 29 2 30
REMARK SMILES IDX 1 31 3 32 25 33 26 34 28 35 27 36 29 38 37 39 39 40 38 41
REMARK SMILES IDX 40 43 45 44 46 45 47 46 41 48 42 49 43 50 44 51 30 54 31 55
REMARK SMILES IDX 32 56 33 57 34 58 36 59 35 63
REMARK H PARENT 24 4 6 9 15 14 19 17 19 18 21 21 13 27 13 28 28 37 39 42 47 47
REMARK H PARENT 43 52 43 53 33 60 36 61 36 62 35 64
ROOT
ATOM      1  C   LEU A   3      -0.905  -0.635   1.161  1.00  0.00     0.243 C 
ATOM      2  O   LEU A   3      -0.551   0.306   0.396  1.00  0.00    -0.273 OA
ATOM      3  N   GLY A   4      -0.162  -0.906   2.358  1.00  0.00    -0.345 N 
ATOM      4  H   UNL     1      -0.446  -1.710   2.962  1.00  0.00     0.164 HD
ENDROOT
BRANCH   1   5
ATOM      5  CA  LEU A   3      -2.074  -1.508   0.789  1.00  0.00     0.171 C 
BRANCH   5   6
ATOM      6  N   LEU A   3      -3.009  -0.758  -0.055  1.00  0.00    -0.343 N 
ATOM      7  C   GLN A   2      -4.018   0.101   0.494  1.00  0.00     0.243 C 
ATOM      8  O   GLN A   2      -4.160   0.197   1.745  1.00  0.00    -0.273 OA
ATOM      9  H   UNL     1      -2.842  -0.733  -1.087  1.00  0.00     0.164 HD
BRANCH   7  10
ATOM     10  CA  GLN A   2      -4.873   0.936  -0.418  1.00  0.00     0.171 C 
BRANCH  10  11
ATOM     11  N   GLN A   2      -6.257   0.924   0.065  1.00  0.00    -0.343 N 
ATOM     12  C   SER A   1      -7.191  -0.098  -0.312  1.00  0.00     0.239 C 
ATOM     13  O   SER A   1      -6.833  -1.031  -1.082  1.00  0.00    -0.273 OA
ATOM     14  H   UNL     1      -6.540   1.610   0.802  1.00  0.00     0.164 HD
BRANCH  12  15
ATOM     15  CA  SER A   1      -8.587  -0.086   0.265  1.00  0.00     0.167 C 
BRANCH  15  16
ATOM     16  N   SER A   1      -9.580  -0.560  -0.704  1.00  0.00    -0.318 NA
ATOM     17  H   UNL     1      -9.341  -1.531  -1.013  1.00  0.00     0.119 HD
ATOM     18  H   UNL     1      -9.540   0.056  -1.550  1.00  0.00     0.119 HD
ENDBRANCH  15  16
BRANCH  15  19
ATOM     19  CB  SER A   1      -8.657  -0.912   1.559  1.00  0.00     0.184 C 
BRANCH  19  20
ATOM     20  OG  SER A   1      -8.383  -2.267   1.317  1.00  0.00    -0.394 OA
ATOM     21  H   UNL     1      -7.396  -2.373   1.360  1.00  0.00     0.210 HD
ENDBRANCH  19  20
ENDBRANCH  15  19
ENDBRANCH  12  15
ENDBRANCH  10  11
BRANCH  10  22
ATOM     22  CB  GLN A   2      -4.320   2.376  -0.480  1.00  0.00     0.045 C 
BRANCH  22  23
ATOM     23  CG  GLN A   2      -4.921   3.207  -1.625  1.00  0.00     0.102 C 
BRANCH  23  24
ATOM     24  CD  GLN A   2      -6.357   3.567  -1.374  1.00  0.00     0.217 C 
ATOM     25  NE2 GLN A   2      -7.407   2.878  -2.051  1.00  0.00    -0.370 N 
ATOM     26  OE1 GLN A   2      -6.637   4.467  -0.538  1.00  0.00    -0.275 OA
ATOM     27  H   UNL     1      -8.405   3.118  -1.858  1.00  0.00     0.159 HD
ATOM     28  H   UNL     1      -7.196   2.118  -2.737  1.00  0.00     0.159 HD
ENDBRANCH  23  24
ENDBRANCH  22  23
ENDBRANCH  10  22
ENDBRANCH   7  10
ENDBRANCH   5   6
BRANCH   5  29
ATOM     29  CB  LEU A   3      -1.575  -2.773   0.061  1.00  0.00     0.038 C 
BRANCH  29  30
ATOM     30  CG  LEU A   3      -2.709  -3.744  -0.351  1.00  0.00    -0.015 C 
ATOM     31  CD1 LEU A   3      -3.419  -4.353   0.869  1.00  0.00     0.007 C 
ATOM     32  CD2 LEU A   3      -2.144  -4.862  -1.236  1.00  0.00     0.007 C 
ENDBRANCH  29  30
ENDBRANCH   5  29
ENDBRANCH   1   5
BRANCH   3  33
ATOM     33  CA  GLY A   4       0.961  -0.076   2.789  1.00  0.00     0.216 C 
BRANCH  33  34
ATOM     34  C   GLY A   4       2.107  -0.212   1.832  1.00  0.00     0.240 C 
ATOM     35  N   ARG A   5       2.632   0.947   1.163  1.00  0.00    -0.343 N 
ATOM     36  O   GLY A   4       2.600  -1.353   1.620  1.00  0.00    -0.273 OA
ATOM     37  H   UNL     1       2.204   1.879   1.369  1.00  0.00     0.164 HD
BRANCH  35  38
ATOM     38  CA  ARG A   5       3.609   0.865   0.074  1.00  0.00     0.171 C 
BRANCH  38  39
ATOM     39  C   ARG A   5       4.707   1.865   0.348  1.00  0.00     0.243 C 
ATOM     40  N   ASN A   6       5.883   1.453   1.064  1.00  0.00    -0.341 N 
ATOM     41  O   ARG A   5       4.550   3.075   0.028  1.00  0.00    -0.273 OA
ATOM     42  H   UNL     1       6.026   0.432   1.235  1.00  0.00     0.164 HD
BRANCH  40  43
ATOM     43  CA  ASN A   6       6.901   2.398   1.540  1.00  0.00     0.201 C 
BRANCH  43  44
ATOM     44  C   ASN A   6       8.189   2.206   0.788  1.00  0.00     0.326 C 
ATOM     45  O   ASN A   6       8.628   1.049   0.553  1.00  0.00    -0.250 OA
BRANCH  44  46
ATOM     46  OXT ASN A   6       8.920   3.317   0.380  1.00  0.00    -0.480 OA
ATOM     47  H   UNL     1       9.799   3.210  -0.113  1.00  0.00     0.296 HD
ENDBRANCH  44  46
ENDBRANCH  43  44
BRANCH  43  48
ATOM     48  CB  ASN A   6       7.098   2.273   3.064  1.00  0.00     0.136 C 
BRANCH  48  49
ATOM     49  CG  ASN A   6       7.623   0.930   3.493  1.00  0.00     0.220 C 
ATOM     50  ND2 ASN A   6       9.026   0.709   3.623  1.00  0.00    -0.370 N 
ATOM     51  OD1 ASN A   6       6.820  -0.014   3.725  1.00  0.00    -0.275 OA
ATOM     52  H   UNL     1       9.390  -0.230   3.901  1.00  0.00     0.159 HD
ATOM     53  H   UNL     1       9.706   1.482   3.442  1.00  0.00     0.159 HD
ENDBRANCH  48  49
ENDBRANCH  43  48
ENDBRANCH  40  43
ENDBRANCH  38  39
BRANCH  38  54
ATOM     54  CB  ARG A   5       2.891   1.110  -1.277  1.00  0.00     0.037 C 
BRANCH  54  55
ATOM     55  CG  ARG A   5       3.519   0.370  -2.472  1.00  0.00     0.024 C 
BRANCH  55  56
ATOM     56  CD  ARG A   5       4.918   0.875  -2.866  1.00  0.00     0.116 C 
BRANCH  56  57
ATOM     57  NE  ARG A   5       5.969   0.200  -2.104  1.00  0.00    -0.357 N 
ATOM     58  CZ  ARG A   5       6.308  -1.183  -2.289  1.00  0.00     0.185 C 
ATOM     59  NH2 ARG A   5       7.266  -1.798  -1.424  1.00  0.00    -0.370 N 
ATOM     60  H   UNL     1       6.557   0.772  -1.459  1.00  0.00     0.163 HD
ATOM     61  H   UNL     1       7.702  -1.254  -0.647  1.00  0.00     0.159 HD
ATOM     62  H   UNL     1       7.533  -2.800  -1.546  1.00  0.00     0.159 HD
BRANCH  58  63
ATOM     63  NH1 ARG A   5       5.756  -1.871  -3.239  1.00  0.00    -0.270 NA
ATOM     64  H   UNL     1       5.988  -2.878  -3.396  1.00  0.00     0.191 HD
ENDBRANCH  58  63
ENDBRANCH  56  57
ENDBRANCH  55  56
ENDBRANCH  54  55
ENDBRANCH  38  54
ENDBRANCH  35  38
ENDBRANCH  33  34
ENDBRANCH   3  33
TORSDOF 27
