REMARK SMILES CC(C)C[C@H](NC(=O)CNC(=O)CNC(=O)[C@@H](N)CO)C(=O)N[C@@H](CCCNC(=N)N)C(=O)N[C@@H](CC(N)=O)C(=O)O
REMARK SMILES IDX 7 1 8 2 6 3 9 5 10 6 11 7 12 8 13 10 14 11 15 12 16 13 17 15
REMARK SMILES IDX 18 16 19 19 20 20 5 22 21 23 23 24 22 25 24 27 32 28 34 29
REMARK SMILES IDX 33 30 35 32 40 33 41 34 42 35 36 37 37 38 38 39 39 40 25 43
REMARK SMILES IDX 26 44 27 45 28 46 29 47 31 48 30 52 4 54 2 55 1 56 3 57
REMARK H PARENT 6 4 10 9 14 14 18 17 18 18 20 21 23 26 34 31 42 36 38 41 38 42
REMARK H PARENT 28 49 31 50 31 51 30 53
ROOT
ATOM      1  C   GLY A   3      20.048  10.092  -6.449  1.00  0.00     0.240 C 
ATOM      2  O   GLY A   3      20.192   9.188  -5.581  1.00  0.00    -0.273 OA
ATOM      3  N   LEU A   4      20.556   9.924  -7.765  1.00  0.00    -0.343 N 
ATOM      4  H   UNL     1      20.377  10.661  -8.485  1.00  0.00     0.164 HD
ENDROOT
BRANCH   1   5
ATOM      5  CA  GLY A   3      19.326  11.344  -6.106  1.00  0.00     0.216 C 
BRANCH   5   6
ATOM      6  N   GLY A   3      18.043  10.993  -5.532  1.00  0.00    -0.346 N 
ATOM      7  C   GLY A   2      16.872  11.763  -5.743  1.00  0.00     0.239 C 
ATOM      8  O   GLY A   2      16.905  12.808  -6.450  1.00  0.00    -0.273 OA
ATOM      9  H   UNL     1      18.016  10.254  -4.792  1.00  0.00     0.164 HD
BRANCH   7  10
ATOM     10  CA  GLY A   2      15.635  11.334  -5.027  1.00  0.00     0.216 C 
BRANCH  10  11
ATOM     11  N   GLY A   2      14.442  11.728  -5.745  1.00  0.00    -0.346 N 
ATOM     12  C   SER A   1      13.907  13.044  -5.633  1.00  0.00     0.239 C 
ATOM     13  O   SER A   1      14.440  13.871  -4.842  1.00  0.00    -0.273 OA
ATOM     14  H   UNL     1      13.863  10.960  -6.151  1.00  0.00     0.164 HD
BRANCH  12  15
ATOM     15  CA  SER A   1      12.657  13.407  -6.390  1.00  0.00     0.167 C 
BRANCH  15  16
ATOM     16  N   SER A   1      12.475  14.860  -6.380  1.00  0.00    -0.318 NA
ATOM     17  H   UNL     1      11.523  15.088  -6.748  1.00  0.00     0.119 HD
ATOM     18  H   UNL     1      13.178  15.307  -7.014  1.00  0.00     0.119 HD
ENDBRANCH  15  16
BRANCH  15  19
ATOM     19  CB  SER A   1      12.690  12.867  -7.839  1.00  0.00     0.184 C 
BRANCH  19  20
ATOM     20  OG  SER A   1      11.442  13.038  -8.451  1.00  0.00    -0.394 OA
ATOM     21  H   UNL     1      11.458  13.925  -8.898  1.00  0.00     0.210 HD
ENDBRANCH  19  20
ENDBRANCH  15  19
ENDBRANCH  12  15
ENDBRANCH  10  11
ENDBRANCH   7  10
ENDBRANCH   5   6
ENDBRANCH   1   5
BRANCH   3  22
ATOM     22  CA  LEU A   4      21.344   8.763  -8.137  1.00  0.00     0.171 C 
BRANCH  22  23
ATOM     23  C   LEU A   4      22.710   9.219  -8.518  1.00  0.00     0.243 C 
ATOM     24  N   ARG A   5      23.820   8.721  -7.785  1.00  0.00    -0.343 N 
ATOM     25  O   LEU A   4      22.874  10.034  -9.467  1.00  0.00    -0.273 OA
ATOM     26  H   UNL     1      23.665   8.031  -7.015  1.00  0.00     0.164 HD
BRANCH  24  27
ATOM     27  CA  ARG A   5      25.184   9.122  -8.073  1.00  0.00     0.171 C 
BRANCH  27  28
ATOM     28  C   ARG A   5      25.899   7.967  -8.686  1.00  0.00     0.243 C 
ATOM     29  N   ASN A   6      25.913   7.864 -10.103  1.00  0.00    -0.341 N 
ATOM     30  O   ARG A   5      26.447   7.087  -7.969  1.00  0.00    -0.273 OA
ATOM     31  H   UNL     1      25.489   8.647 -10.651  1.00  0.00     0.164 HD
BRANCH  29  32
ATOM     32  CA  ASN A   6      26.542   6.751 -10.804  1.00  0.00     0.201 C 
BRANCH  32  33
ATOM     33  C   ASN A   6      27.993   6.642 -10.416  1.00  0.00     0.326 C 
ATOM     34  O   ASN A   6      28.794   7.579 -10.677  1.00  0.00    -0.250 OA
BRANCH  33  35
ATOM     35  OXT ASN A   6      28.451   5.499  -9.768  1.00  0.00    -0.480 OA
ATOM     36  H   UNL     1      29.424   5.409  -9.499  1.00  0.00     0.296 HD
ENDBRANCH  33  35
ENDBRANCH  32  33
BRANCH  32  37
ATOM     37  CB  ASN A   6      26.424   6.946 -12.323  1.00  0.00     0.136 C 
BRANCH  37  38
ATOM     38  CG  ASN A   6      25.010   7.180 -12.773  1.00  0.00     0.220 C 
ATOM     39  ND2 ASN A   6      24.753   8.090 -13.833  1.00  0.00    -0.370 N 
ATOM     40  OD1 ASN A   6      24.053   6.558 -12.243  1.00  0.00    -0.275 OA
ATOM     41  H   UNL     1      25.533   8.600 -14.306  1.00  0.00     0.159 HD
ATOM     42  H   UNL     1      23.775   8.258 -14.156  1.00  0.00     0.159 HD
ENDBRANCH  37  38
ENDBRANCH  32  37
ENDBRANCH  29  32
ENDBRANCH  27  28
BRANCH  27  43
ATOM     43  CB  ARG A   5      25.863   9.605  -6.796  1.00  0.00     0.037 C 
BRANCH  43  44
ATOM     44  CG  ARG A   5      25.168  10.861  -6.272  1.00  0.00     0.024 C 
BRANCH  44  45
ATOM     45  CD  ARG A   5      25.843  11.391  -5.015  1.00  0.00     0.116 C 
BRANCH  45  46
ATOM     46  NE  ARG A   5      25.379  10.684  -3.823  1.00  0.00    -0.357 N 
ATOM     47  CZ  ARG A   5      25.469  11.279  -2.527  1.00  0.00     0.185 C 
ATOM     48  NH2 ARG A   5      26.106  12.541  -2.349  1.00  0.00    -0.370 N 
ATOM     49  H   UNL     1      24.905   9.757  -3.922  1.00  0.00     0.163 HD
ATOM     50  H   UNL     1      26.694  12.982  -3.090  1.00  0.00     0.159 HD
ATOM     51  H   UNL     1      26.083  13.006  -1.415  1.00  0.00     0.159 HD
BRANCH  47  52
ATOM     52  NH1 ARG A   5      24.959  10.678  -1.500  1.00  0.00    -0.270 NA
ATOM     53  H   UNL     1      24.478   9.755  -1.583  1.00  0.00     0.191 HD
ENDBRANCH  47  52
ENDBRANCH  45  46
ENDBRANCH  44  45
ENDBRANCH  43  44
ENDBRANCH  27  43
ENDBRANCH  24  27
ENDBRANCH  22  23
BRANCH  22  54
ATOM     54  CB  LEU A   4      20.653   8.001  -9.270  1.00  0.00     0.038 C 
BRANCH  54  55
ATOM     55  CG  LEU A   4      21.447   6.773  -9.767  1.00  0.00    -0.015 C 
ATOM     56  CD1 LEU A   4      21.762   5.780  -8.639  1.00  0.00     0.007 C 
ATOM     57  CD2 LEU A   4      20.662   6.069 -10.877  1.00  0.00     0.007 C 
ENDBRANCH  54  55
ENDBRANCH  22  54
ENDBRANCH   3  22
TORSDOF 24
