REMARK SMILES CC(C)C[C@H](NC(=O)[C@H](CC(N)=O)NC(=O)[C@H](Cc1ccccc1)NC(=O)[C@@H](N)CO)C(=O)N[C@@H](CCCNC(=N)N)C(=O)N[C@@H](CC(N)=O)C(=O)O
REMARK SMILES IDX 7 1 8 2 6 3 9 5 14 6 15 7 16 8 17 10 25 11 26 12 27 13 28 15
REMARK SMILES IDX 29 16 30 19 31 20 18 22 19 23 20 24 24 25 21 26 23 27 22 28
REMARK SMILES IDX 10 29 11 30 12 31 13 32 5 35 32 36 34 37 33 38 35 40 43 41
REMARK SMILES IDX 45 42 44 43 46 45 51 46 52 47 53 48 47 50 48 51 49 52 50 53
REMARK SMILES IDX 36 56 37 57 38 58 39 59 40 60 42 61 41 65 4 67 2 68 1 69
REMARK SMILES IDX 3 70
REMARK H PARENT 6 4 14 9 25 14 29 17 29 18 31 21 12 33 12 34 34 39 45 44 53 49
REMARK H PARENT 49 54 49 55 39 62 42 63 42 64 41 66
ROOT
ATOM      1  C   ASN A   3      20.052  10.096  -6.459  1.00  0.00     0.243 C 
ATOM      2  O   ASN A   3      20.170   9.183  -5.594  1.00  0.00    -0.273 OA
ATOM      3  N   LEU A   4      20.563   9.921  -7.771  1.00  0.00    -0.342 N 
ATOM      4  H   UNL     1      20.395  10.659  -8.493  1.00  0.00     0.164 HD
ENDROOT
BRANCH   1   5
ATOM      5  CA  ASN A   3      19.347  11.368  -6.130  1.00  0.00     0.180 C 
BRANCH   5   6
ATOM      6  N   ASN A   3      18.089  11.044  -5.508  1.00  0.00    -0.342 N 
ATOM      7  C   PHE A   2      16.888  11.749  -5.774  1.00  0.00     0.243 C 
ATOM      8  O   PHE A   2      16.903  12.793  -6.483  1.00  0.00    -0.273 OA
ATOM      9  H   UNL     1      18.165  10.485  -4.632  1.00  0.00     0.164 HD
BRANCH   7  10
ATOM     10  CA  PHE A   2      15.653  11.312  -5.059  1.00  0.00     0.175 C 
BRANCH  10  11
ATOM     11  N   PHE A   2      14.456  11.739  -5.768  1.00  0.00    -0.343 N 
ATOM     12  C   SER A   1      13.917  13.048  -5.634  1.00  0.00     0.239 C 
ATOM     13  O   SER A   1      14.447  13.866  -4.833  1.00  0.00    -0.273 OA
ATOM     14  H   UNL     1      13.868  10.999  -6.211  1.00  0.00     0.164 HD
BRANCH  12  15
ATOM     15  CA  SER A   1      12.661  13.410  -6.390  1.00  0.00     0.167 C 
BRANCH  15  16
ATOM     16  N   SER A   1      12.454  14.859  -6.401  1.00  0.00    -0.318 NA
ATOM     17  H   UNL     1      12.284  15.188  -5.423  1.00  0.00     0.119 HD
ATOM     18  H   UNL     1      13.315  15.336  -6.757  1.00  0.00     0.119 HD
ENDBRANCH  15  16
BRANCH  15  19
ATOM     19  CB  SER A   1      12.693  12.886  -7.842  1.00  0.00     0.184 C 
BRANCH  19  20
ATOM     20  OG  SER A   1      11.438  13.058  -8.437  1.00  0.00    -0.394 OA
ATOM     21  H   UNL     1      11.539  12.786  -9.386  1.00  0.00     0.210 HD
ENDBRANCH  19  20
ENDBRANCH  15  19
ENDBRANCH  12  15
ENDBRANCH  10  11
BRANCH  10  22
ATOM     22  CB  PHE A   2      15.613   9.773  -4.889  1.00  0.00     0.070 C 
BRANCH  22  23
ATOM     23  CG  PHE A   2      14.443   9.289  -4.090  1.00  0.00    -0.045 A 
ATOM     24  CD1 PHE A   2      13.903  10.047  -3.033  1.00  0.00     0.004 A 
ATOM     25  CD2 PHE A   2      13.968   7.990  -4.310  1.00  0.00     0.004 A 
ATOM     26  CE1 PHE A   2      12.868   9.536  -2.260  1.00  0.00     0.000 A 
ATOM     27  CE2 PHE A   2      12.939   7.477  -3.521  1.00  0.00     0.000 A 
ATOM     28  CZ  PHE A   2      12.386   8.252  -2.502  1.00  0.00     0.000 A 
ENDBRANCH  22  23
ENDBRANCH  10  22
ENDBRANCH   7  10
ENDBRANCH   5   6
BRANCH   5  29
ATOM     29  CB  ASN A   3      20.177  12.264  -5.201  1.00  0.00     0.134 C 
BRANCH  29  30
ATOM     30  CG  ASN A   3      20.422  11.674  -3.834  1.00  0.00     0.220 C 
ATOM     31  ND2 ASN A   3      21.598  10.906  -3.576  1.00  0.00    -0.370 N 
ATOM     32  OD1 ASN A   3      19.585  11.861  -2.910  1.00  0.00    -0.275 OA
ATOM     33  H   UNL     1      22.302  10.740  -4.328  1.00  0.00     0.159 HD
ATOM     34  H   UNL     1      21.766  10.501  -2.628  1.00  0.00     0.159 HD
ENDBRANCH  29  30
ENDBRANCH   5  29
ENDBRANCH   1   5
BRANCH   3  35
ATOM     35  CA  LEU A   4      21.347   8.760  -8.138  1.00  0.00     0.171 C 
BRANCH  35  36
ATOM     36  C   LEU A   4      22.713   9.216  -8.519  1.00  0.00     0.243 C 
ATOM     37  N   ARG A   5      23.822   8.720  -7.785  1.00  0.00    -0.343 N 
ATOM     38  O   LEU A   4      22.876  10.032  -9.467  1.00  0.00    -0.273 OA
ATOM     39  H   UNL     1      23.667   8.030  -7.014  1.00  0.00     0.164 HD
BRANCH  37  40
ATOM     40  CA  ARG A   5      25.185   9.122  -8.073  1.00  0.00     0.171 C 
BRANCH  40  41
ATOM     41  C   ARG A   5      25.900   7.968  -8.685  1.00  0.00     0.243 C 
ATOM     42  N   ASN A   6      25.913   7.864 -10.102  1.00  0.00    -0.341 N 
ATOM     43  O   ARG A   5      26.447   7.087  -7.969  1.00  0.00    -0.273 OA
ATOM     44  H   UNL     1      25.488   8.647 -10.651  1.00  0.00     0.164 HD
BRANCH  42  45
ATOM     45  CA  ASN A   6      26.542   6.751 -10.804  1.00  0.00     0.201 C 
BRANCH  45  46
ATOM     46  C   ASN A   6      27.993   6.642 -10.416  1.00  0.00     0.326 C 
ATOM     47  O   ASN A   6      28.794   7.579 -10.677  1.00  0.00    -0.250 OA
BRANCH  46  48
ATOM     48  OXT ASN A   6      28.451   5.499  -9.768  1.00  0.00    -0.480 OA
ATOM     49  H   UNL     1      29.424   5.409  -9.499  1.00  0.00     0.296 HD
ENDBRANCH  46  48
ENDBRANCH  45  46
BRANCH  45  50
ATOM     50  CB  ASN A   6      26.424   6.947 -12.323  1.00  0.00     0.136 C 
BRANCH  50  51
ATOM     51  CG  ASN A   6      25.010   7.180 -12.773  1.00  0.00     0.220 C 
ATOM     52  ND2 ASN A   6      24.753   8.090 -13.833  1.00  0.00    -0.370 N 
ATOM     53  OD1 ASN A   6      24.053   6.558 -12.243  1.00  0.00    -0.275 OA
ATOM     54  H   UNL     1      23.775   8.258 -14.156  1.00  0.00     0.159 HD
ATOM     55  H   UNL     1      25.533   8.600 -14.306  1.00  0.00     0.159 HD
ENDBRANCH  50  51
ENDBRANCH  45  50
ENDBRANCH  42  45
ENDBRANCH  40  41
BRANCH  40  56
ATOM     56  CB  ARG A   5      25.863   9.605  -6.795  1.00  0.00     0.037 C 
BRANCH  56  57
ATOM     57  CG  ARG A   5      25.168  10.861  -6.271  1.00  0.00     0.024 C 
BRANCH  57  58
ATOM     58  CD  ARG A   5      25.841  11.391  -5.014  1.00  0.00     0.116 C 
BRANCH  58  59
ATOM     59  NE  ARG A   5      25.376  10.687  -3.821  1.00  0.00    -0.357 N 
ATOM     60  CZ  ARG A   5      25.468  11.281  -2.527  1.00  0.00     0.185 C 
ATOM     61  NH2 ARG A   5      26.108  12.545  -2.351  1.00  0.00    -0.370 N 
ATOM     62  H   UNL     1      24.894   9.764  -3.913  1.00  0.00     0.163 HD
ATOM     63  H   UNL     1      26.083  13.022  -1.422  1.00  0.00     0.159 HD
ATOM     64  H   UNL     1      26.698  12.981  -3.092  1.00  0.00     0.159 HD
BRANCH  60  65
ATOM     65  NH1 ARG A   5      24.954  10.671  -1.507  1.00  0.00    -0.270 NA
ATOM     66  H   UNL     1      24.996  11.075  -0.545  1.00  0.00     0.191 HD
ENDBRANCH  60  65
ENDBRANCH  58  59
ENDBRANCH  57  58
ENDBRANCH  56  57
ENDBRANCH  40  56
ENDBRANCH  37  40
ENDBRANCH  35  36
BRANCH  35  67
ATOM     67  CB  LEU A   4      20.655   7.999  -9.271  1.00  0.00     0.038 C 
BRANCH  67  68
ATOM     68  CG  LEU A   4      21.448   6.771  -9.768  1.00  0.00    -0.015 C 
ATOM     69  CD1 LEU A   4      21.762   5.778  -8.639  1.00  0.00     0.007 C 
ATOM     70  CD2 LEU A   4      20.661   6.068 -10.877  1.00  0.00     0.007 C 
ENDBRANCH  67  68
ENDBRANCH  35  67
ENDBRANCH   3  35
TORSDOF 28
