REMARK SMILES CC(C)C[C@H](NC(=O)[C@H](Cc1ccc(O)cc1)NC(=O)[C@H](C)NC(=O)[C@@H](N)CO)C(=O)N[C@@H](CCCNC(=N)N)C(=O)N[C@@H](CC(N)=O)C(=O)O
REMARK SMILES IDX 7 1 8 2 6 3 9 5 18 6 19 7 20 8 21 10 22 11 23 12 24 13 25 14
REMARK SMILES IDX 26 16 27 17 28 20 29 21 10 23 11 24 12 25 17 26 13 27 16 28
REMARK SMILES IDX 14 29 15 30 5 32 30 33 32 34 31 35 33 37 41 38 43 39 42 40
REMARK SMILES IDX 44 42 49 43 50 44 51 45 45 47 46 48 47 49 48 50 34 53 35 54
REMARK SMILES IDX 36 55 37 56 38 57 40 58 39 62 4 64 2 65 1 66 3 67
REMARK H PARENT 6 4 18 9 23 15 27 18 27 19 29 22 15 31 32 36 43 41 51 46 47 51
REMARK H PARENT 47 52 37 59 40 60 40 61 39 63
ROOT
ATOM      1  C   TYR A   3      20.045  10.089  -6.459  1.00  0.00     0.243 C 
ATOM      2  O   TYR A   3      20.165   9.172  -5.599  1.00  0.00    -0.273 OA
ATOM      3  N   LEU A   4      20.563   9.923  -7.769  1.00  0.00    -0.343 N 
ATOM      4  H   UNL     1      20.398  10.665  -8.489  1.00  0.00     0.164 HD
ENDROOT
BRANCH   1   5
ATOM      5  CA  TYR A   3      19.329  11.353  -6.123  1.00  0.00     0.175 C 
BRANCH   5   6
ATOM      6  N   TYR A   3      18.066  11.014  -5.506  1.00  0.00    -0.342 N 
ATOM      7  C   ALA A   2      16.872  11.747  -5.737  1.00  0.00     0.242 C 
ATOM      8  O   ALA A   2      16.894  12.792  -6.446  1.00  0.00    -0.273 OA
ATOM      9  H   UNL     1      18.098  10.340  -4.711  1.00  0.00     0.164 HD
BRANCH   7  10
ATOM     10  CA  ALA A   2      15.618  11.295  -5.040  1.00  0.00     0.168 C 
ATOM     11  CB  ALA A   2      15.567   9.763  -4.903  1.00  0.00     0.041 C 
BRANCH  10  12
ATOM     12  N   ALA A   2      14.440  11.732  -5.768  1.00  0.00    -0.343 N 
ATOM     13  C   SER A   1      13.912  13.046  -5.635  1.00  0.00     0.239 C 
ATOM     14  O   SER A   1      14.448  13.862  -4.835  1.00  0.00    -0.273 OA
ATOM     15  H   UNL     1      13.857  11.001  -6.230  1.00  0.00     0.164 HD
BRANCH  13  16
ATOM     16  CA  SER A   1      12.659  13.415  -6.390  1.00  0.00     0.167 C 
BRANCH  16  17
ATOM     17  N   SER A   1      12.458  14.865  -6.397  1.00  0.00    -0.318 NA
ATOM     18  H   UNL     1      13.320  15.339  -6.755  1.00  0.00     0.119 HD
ATOM     19  H   UNL     1      12.292  15.193  -5.418  1.00  0.00     0.119 HD
ENDBRANCH  16  17
BRANCH  16  20
ATOM     20  CB  SER A   1      12.689  12.894  -7.845  1.00  0.00     0.184 C 
BRANCH  20  21
ATOM     21  OG  SER A   1      11.434  13.051  -8.446  1.00  0.00    -0.394 OA
ATOM     22  H   UNL     1      11.376  13.995  -8.748  1.00  0.00     0.210 HD
ENDBRANCH  20  21
ENDBRANCH  16  20
ENDBRANCH  13  16
ENDBRANCH  10  12
ENDBRANCH   7  10
ENDBRANCH   5   6
BRANCH   5  23
ATOM     23  CB  TYR A   3      20.159  12.254  -5.195  1.00  0.00     0.070 C 
BRANCH  23  24
ATOM     24  CG  TYR A   3      20.396  11.664  -3.821  1.00  0.00    -0.045 A 
ATOM     25  CD1 TYR A   3      21.523  10.864  -3.574  1.00  0.00     0.007 A 
ATOM     26  CD2 TYR A   3      19.471  11.886  -2.787  1.00  0.00     0.007 A 
ATOM     27  CE1 TYR A   3      21.706  10.272  -2.321  1.00  0.00     0.046 A 
ATOM     28  CE2 TYR A   3      19.666  11.307  -1.530  1.00  0.00     0.046 A 
ATOM     29  CZ  TYR A   3      20.780  10.496  -1.294  1.00  0.00     0.115 A 
BRANCH  29  30
ATOM     30  OH  TYR A   3      20.957   9.917  -0.040  1.00  0.00    -0.508 OA
ATOM     31  H   UNL     1      21.755   9.325   0.162  1.00  0.00     0.293 HD
ENDBRANCH  29  30
ENDBRANCH  23  24
ENDBRANCH   5  23
ENDBRANCH   1   5
BRANCH   3  32
ATOM     32  CA  LEU A   4      21.348   8.762  -8.139  1.00  0.00     0.171 C 
BRANCH  32  33
ATOM     33  C   LEU A   4      22.713   9.217  -8.520  1.00  0.00     0.243 C 
ATOM     34  N   ARG A   5      23.822   8.720  -7.785  1.00  0.00    -0.343 N 
ATOM     35  O   LEU A   4      22.877  10.033  -9.468  1.00  0.00    -0.273 OA
ATOM     36  H   UNL     1      23.666   8.031  -7.014  1.00  0.00     0.164 HD
BRANCH  34  37
ATOM     37  CA  ARG A   5      25.185   9.122  -8.072  1.00  0.00     0.171 C 
BRANCH  37  38
ATOM     38  C   ARG A   5      25.900   7.968  -8.685  1.00  0.00     0.243 C 
ATOM     39  N   ASN A   6      25.913   7.864 -10.102  1.00  0.00    -0.341 N 
ATOM     40  O   ARG A   5      26.447   7.087  -7.969  1.00  0.00    -0.273 OA
ATOM     41  H   UNL     1      25.488   8.647 -10.651  1.00  0.00     0.164 HD
BRANCH  39  42
ATOM     42  CA  ASN A   6      26.542   6.751 -10.804  1.00  0.00     0.201 C 
BRANCH  42  43
ATOM     43  C   ASN A   6      27.993   6.642 -10.416  1.00  0.00     0.326 C 
ATOM     44  O   ASN A   6      28.794   7.579 -10.677  1.00  0.00    -0.250 OA
BRANCH  43  45
ATOM     45  OXT ASN A   6      28.451   5.499  -9.768  1.00  0.00    -0.480 OA
ATOM     46  H   UNL     1      29.424   5.409  -9.499  1.00  0.00     0.296 HD
ENDBRANCH  43  45
ENDBRANCH  42  43
BRANCH  42  47
ATOM     47  CB  ASN A   6      26.424   6.947 -12.323  1.00  0.00     0.136 C 
BRANCH  47  48
ATOM     48  CG  ASN A   6      25.010   7.181 -12.773  1.00  0.00     0.220 C 
ATOM     49  ND2 ASN A   6      24.753   8.090 -13.833  1.00  0.00    -0.370 N 
ATOM     50  OD1 ASN A   6      24.053   6.558 -12.243  1.00  0.00    -0.275 OA
ATOM     51  H   UNL     1      25.533   8.600 -14.306  1.00  0.00     0.159 HD
ATOM     52  H   UNL     1      23.774   8.258 -14.156  1.00  0.00     0.159 HD
ENDBRANCH  47  48
ENDBRANCH  42  47
ENDBRANCH  39  42
ENDBRANCH  37  38
BRANCH  37  53
ATOM     53  CB  ARG A   5      25.863   9.604  -6.795  1.00  0.00     0.037 C 
BRANCH  53  54
ATOM     54  CG  ARG A   5      25.167  10.860  -6.270  1.00  0.00     0.024 C 
BRANCH  54  55
ATOM     55  CD  ARG A   5      25.840  11.391  -5.013  1.00  0.00     0.116 C 
BRANCH  55  56
ATOM     56  NE  ARG A   5      25.375  10.688  -3.819  1.00  0.00    -0.357 N 
ATOM     57  CZ  ARG A   5      25.471  11.283  -2.526  1.00  0.00     0.185 C 
ATOM     58  NH2 ARG A   5      26.109  12.548  -2.353  1.00  0.00    -0.370 N 
ATOM     59  H   UNL     1      24.890   9.766  -3.910  1.00  0.00     0.163 HD
ATOM     60  H   UNL     1      26.085  13.025  -1.424  1.00  0.00     0.159 HD
ATOM     61  H   UNL     1      26.695  12.985  -3.096  1.00  0.00     0.159 HD
BRANCH  57  62
ATOM     62  NH1 ARG A   5      24.965  10.671  -1.503  1.00  0.00    -0.270 NA
ATOM     63  H   UNL     1      25.010  11.075  -0.541  1.00  0.00     0.191 HD
ENDBRANCH  57  62
ENDBRANCH  55  56
ENDBRANCH  54  55
ENDBRANCH  53  54
ENDBRANCH  37  53
ENDBRANCH  34  37
ENDBRANCH  32  33
BRANCH  32  64
ATOM     64  CB  LEU A   4      20.654   8.000  -9.271  1.00  0.00     0.038 C 
BRANCH  64  65
ATOM     65  CG  LEU A   4      21.448   6.772  -9.768  1.00  0.00    -0.015 C 
ATOM     66  CD1 LEU A   4      21.762   5.779  -8.639  1.00  0.00     0.007 C 
ATOM     67  CD2 LEU A   4      20.661   6.068 -10.877  1.00  0.00     0.007 C 
ENDBRANCH  64  65
ENDBRANCH  32  64
ENDBRANCH   3  32
TORSDOF 27
