REMARK SMILES CC(C)C[C@H](NC(=O)[C@H](CC(=O)O)NC(=O)CNC(=O)[C@@H](N)CO)C(=O)N[C@@H](CCCNC(=N)N)C(=O)N[C@@H](CC(N)=O)C(=O)O
REMARK SMILES IDX 7 1 8 2 6 3 9 5 14 6 15 7 16 8 17 10 18 11 19 12 20 13 21 15
REMARK SMILES IDX 22 16 23 19 24 20 10 22 11 23 12 24 13 25 5 27 25 28 27 29
REMARK SMILES IDX 26 30 28 32 36 33 38 34 37 35 39 37 44 38 45 39 46 40 40 42
REMARK SMILES IDX 41 43 42 44 43 45 29 48 30 49 31 50 32 51 33 52 35 53 34 57
REMARK SMILES IDX 4 59 2 60 1 61 3 62
REMARK H PARENT 6 4 14 9 18 14 22 17 22 18 24 21 13 26 27 31 38 36 46 41 42 46
REMARK H PARENT 42 47 32 54 35 55 35 56 34 58
ROOT
ATOM      1  C   ASP A   3      20.048  10.086  -6.452  1.00  0.00     0.243 C 
ATOM      2  O   ASP A   3      20.183   9.176  -5.588  1.00  0.00    -0.273 OA
ATOM      3  N   LEU A   4      20.563   9.921  -7.765  1.00  0.00    -0.342 N 
ATOM      4  H   UNL     1      20.392  10.661  -8.485  1.00  0.00     0.164 HD
ENDROOT
BRANCH   1   5
ATOM      5  CA  ASP A   3      19.316  11.341  -6.119  1.00  0.00     0.182 C 
BRANCH   5   6
ATOM      6  N   ASP A   3      18.039  10.992  -5.527  1.00  0.00    -0.342 N 
ATOM      7  C   GLY A   2      16.868  11.761  -5.739  1.00  0.00     0.240 C 
ATOM      8  O   GLY A   2      16.901  12.807  -6.445  1.00  0.00    -0.273 OA
ATOM      9  H   UNL     1      18.005  10.229  -4.812  1.00  0.00     0.164 HD
BRANCH   7  10
ATOM     10  CA  GLY A   2      15.632  11.330  -5.025  1.00  0.00     0.216 C 
BRANCH  10  11
ATOM     11  N   GLY A   2      14.440  11.726  -5.743  1.00  0.00    -0.346 N 
ATOM     12  C   SER A   1      13.909  13.042  -5.629  1.00  0.00     0.239 C 
ATOM     13  O   SER A   1      14.446  13.867  -4.838  1.00  0.00    -0.273 OA
ATOM     14  H   UNL     1      13.859  10.960  -6.149  1.00  0.00     0.164 HD
BRANCH  12  15
ATOM     15  CA  SER A   1      12.658  13.408  -6.386  1.00  0.00     0.167 C 
BRANCH  15  16
ATOM     16  N   SER A   1      12.458  14.859  -6.402  1.00  0.00    -0.318 NA
ATOM     17  H   UNL     1      12.292  15.194  -5.425  1.00  0.00     0.119 HD
ATOM     18  H   UNL     1      13.321  15.330  -6.764  1.00  0.00     0.119 HD
ENDBRANCH  15  16
BRANCH  15  19
ATOM     19  CB  SER A   1      12.693  12.878  -7.835  1.00  0.00     0.184 C 
BRANCH  19  20
ATOM     20  OG  SER A   1      11.442  13.042  -8.446  1.00  0.00    -0.394 OA
ATOM     21  H   UNL     1      11.398  13.982  -8.760  1.00  0.00     0.210 HD
ENDBRANCH  19  20
ENDBRANCH  15  19
ENDBRANCH  12  15
ENDBRANCH  10  11
ENDBRANCH   7  10
ENDBRANCH   5   6
BRANCH   5  22
ATOM     22  CB  ASP A   3      20.128  12.249  -5.185  1.00  0.00     0.157 C 
BRANCH  22  23
ATOM     23  CG  ASP A   3      20.397  11.645  -3.835  1.00  0.00     0.305 C 
ATOM     24  OD1 ASP A   3      19.525  11.709  -2.928  1.00  0.00    -0.252 OA
BRANCH  23  25
ATOM     25  OD2 ASP A   3      21.605  10.997  -3.595  1.00  0.00    -0.481 OA
ATOM     26  H   UNL     1      21.801  10.579  -2.694  1.00  0.00     0.296 HD
ENDBRANCH  23  25
ENDBRANCH  22  23
ENDBRANCH   5  22
ENDBRANCH   1   5
BRANCH   3  27
ATOM     27  CA  LEU A   4      21.348   8.760  -8.137  1.00  0.00     0.171 C 
BRANCH  27  28
ATOM     28  C   LEU A   4      22.712   9.217  -8.519  1.00  0.00     0.243 C 
ATOM     29  N   ARG A   5      23.822   8.720  -7.785  1.00  0.00    -0.343 N 
ATOM     30  O   LEU A   4      22.876  10.033  -9.467  1.00  0.00    -0.273 OA
ATOM     31  H   UNL     1      23.667   8.030  -7.015  1.00  0.00     0.164 HD
BRANCH  29  32
ATOM     32  CA  ARG A   5      25.185   9.122  -8.073  1.00  0.00     0.171 C 
BRANCH  32  33
ATOM     33  C   ARG A   5      25.900   7.968  -8.685  1.00  0.00     0.243 C 
ATOM     34  N   ASN A   6      25.913   7.864 -10.102  1.00  0.00    -0.341 N 
ATOM     35  O   ARG A   5      26.447   7.087  -7.969  1.00  0.00    -0.273 OA
ATOM     36  H   UNL     1      25.489   8.647 -10.651  1.00  0.00     0.164 HD
BRANCH  34  37
ATOM     37  CA  ASN A   6      26.542   6.751 -10.804  1.00  0.00     0.201 C 
BRANCH  37  38
ATOM     38  C   ASN A   6      27.993   6.642 -10.416  1.00  0.00     0.326 C 
ATOM     39  O   ASN A   6      28.794   7.579 -10.677  1.00  0.00    -0.250 OA
BRANCH  38  40
ATOM     40  OXT ASN A   6      28.451   5.499  -9.768  1.00  0.00    -0.480 OA
ATOM     41  H   UNL     1      29.424   5.409  -9.500  1.00  0.00     0.296 HD
ENDBRANCH  38  40
ENDBRANCH  37  38
BRANCH  37  42
ATOM     42  CB  ASN A   6      26.424   6.947 -12.323  1.00  0.00     0.136 C 
BRANCH  42  43
ATOM     43  CG  ASN A   6      25.010   7.180 -12.773  1.00  0.00     0.220 C 
ATOM     44  ND2 ASN A   6      24.753   8.090 -13.833  1.00  0.00    -0.370 N 
ATOM     45  OD1 ASN A   6      24.053   6.558 -12.243  1.00  0.00    -0.275 OA
ATOM     46  H   UNL     1      25.533   8.600 -14.306  1.00  0.00     0.159 HD
ATOM     47  H   UNL     1      23.775   8.258 -14.156  1.00  0.00     0.159 HD
ENDBRANCH  42  43
ENDBRANCH  37  42
ENDBRANCH  34  37
ENDBRANCH  32  33
BRANCH  32  48
ATOM     48  CB  ARG A   5      25.863   9.605  -6.795  1.00  0.00     0.037 C 
BRANCH  48  49
ATOM     49  CG  ARG A   5      25.166  10.859  -6.270  1.00  0.00     0.024 C 
BRANCH  49  50
ATOM     50  CD  ARG A   5      25.841  11.390  -5.013  1.00  0.00     0.116 C 
BRANCH  50  51
ATOM     51  NE  ARG A   5      25.376  10.687  -3.820  1.00  0.00    -0.357 N 
ATOM     52  CZ  ARG A   5      25.469  11.282  -2.526  1.00  0.00     0.185 C 
ATOM     53  NH2 ARG A   5      26.109  12.545  -2.351  1.00  0.00    -0.370 N 
ATOM     54  H   UNL     1      24.893   9.764  -3.912  1.00  0.00     0.163 HD
ATOM     55  H   UNL     1      26.083  13.022  -1.422  1.00  0.00     0.159 HD
ATOM     56  H   UNL     1      26.699  12.981  -3.092  1.00  0.00     0.159 HD
BRANCH  52  57
ATOM     57  NH1 ARG A   5      24.955  10.671  -1.506  1.00  0.00    -0.270 NA
ATOM     58  H   UNL     1      24.997  11.075  -0.544  1.00  0.00     0.191 HD
ENDBRANCH  52  57
ENDBRANCH  50  51
ENDBRANCH  49  50
ENDBRANCH  48  49
ENDBRANCH  32  48
ENDBRANCH  29  32
ENDBRANCH  27  28
BRANCH  27  59
ATOM     59  CB  LEU A   4      20.654   8.000  -9.270  1.00  0.00     0.038 C 
BRANCH  59  60
ATOM     60  CG  LEU A   4      21.448   6.772  -9.768  1.00  0.00    -0.015 C 
ATOM     61  CD1 LEU A   4      21.762   5.779  -8.639  1.00  0.00     0.007 C 
ATOM     62  CD2 LEU A   4      20.661   6.068 -10.877  1.00  0.00     0.007 C 
ENDBRANCH  59  60
ENDBRANCH  27  59
ENDBRANCH   3  27
TORSDOF 27
