REMARK SMILES CC(C)C[C@H](NC(=O)[C@H](C)NC(=O)[C@@H]1CCCN1C(=O)[C@@H](N)CO)C(=O)N[C@@H](CCCNC(=N)N)C(=O)N[C@@H](CC(N)=O)C(=O)O
REMARK SMILES IDX 7 1 8 2 6 3 9 5 10 6 11 7 12 8 13 9 14 11 18 12 17 13 15 14
REMARK SMILES IDX 16 15 19 16 20 17 21 18 22 19 23 22 24 23 5 25 25 26 27 27
REMARK SMILES IDX 26 28 28 30 36 31 38 32 37 33 39 35 44 36 45 37 46 38 40 40
REMARK SMILES IDX 41 41 42 42 43 43 29 46 30 47 31 48 32 49 33 50 35 51 34 55
REMARK SMILES IDX 4 57 2 58 1 59 3 60
REMARK H PARENT 6 4 11 10 22 20 22 21 24 24 27 29 38 34 46 39 42 44 42 45
REMARK H PARENT 32 52 35 53 35 54 34 56
ROOT
ATOM      1  C   ALA A   3      20.036  10.088  -6.453  1.00  0.00     0.242 C 
ATOM      2  O   ALA A   3      20.181   9.188  -5.581  1.00  0.00    -0.273 OA
ATOM      3  N   LEU A   4      20.559   9.922  -7.764  1.00  0.00    -0.343 N 
ATOM      4  H   UNL     1      20.387  10.659  -8.485  1.00  0.00     0.164 HD
ENDROOT
BRANCH   1   5
ATOM      5  CA  ALA A   3      19.298  11.342  -6.129  1.00  0.00     0.168 C 
ATOM      6  CB  ALA A   3      20.111  12.214  -5.178  1.00  0.00     0.041 C 
BRANCH   5   7
ATOM      7  N   ALA A   3      18.017  10.999  -5.533  1.00  0.00    -0.343 N 
ATOM      8  C   PRO A   2      16.856  11.791  -5.744  1.00  0.00     0.243 C 
ATOM      9  O   PRO A   2      16.912  12.824  -6.466  1.00  0.00    -0.273 OA
ATOM     10  H   UNL     1      17.976  10.239  -4.815  1.00  0.00     0.164 HD
BRANCH   8  11
ATOM     11  CA  PRO A   2      15.562  11.379  -5.100  1.00  0.00     0.174 C 
ATOM     12  N   PRO A   2      14.931  12.523  -4.453  1.00  0.00    -0.329 N 
ATOM     13  CD  PRO A   2      13.743  12.972  -5.166  1.00  0.00     0.120 C 
ATOM     14  CB  PRO A   2      14.555  10.901  -6.146  1.00  0.00     0.037 C 
ATOM     15  CG  PRO A   2      13.641  12.092  -6.407  1.00  0.00     0.024 C 
BRANCH  12  16
ATOM     16  C   SER A   1      15.463  13.115  -3.246  1.00  0.00     0.242 C 
ATOM     17  O   SER A   1      16.636  12.816  -2.888  1.00  0.00    -0.273 OA
BRANCH  16  18
ATOM     18  CA  SER A   1      14.661  14.021  -2.334  1.00  0.00     0.167 C 
BRANCH  18  19
ATOM     19  N   SER A   1      14.108  15.161  -3.072  1.00  0.00    -0.318 NA
ATOM     20  H   UNL     1      13.133  14.952  -3.385  1.00  0.00     0.119 HD
ATOM     21  H   UNL     1      14.026  15.971  -2.414  1.00  0.00     0.119 HD
ENDBRANCH  18  19
BRANCH  18  22
ATOM     22  CB  SER A   1      13.573  13.246  -1.567  1.00  0.00     0.184 C 
BRANCH  22  23
ATOM     23  OG  SER A   1      14.153  12.293  -0.716  1.00  0.00    -0.394 OA
ATOM     24  H   UNL     1      14.327  11.485  -1.266  1.00  0.00     0.210 HD
ENDBRANCH  22  23
ENDBRANCH  18  22
ENDBRANCH  16  18
ENDBRANCH  12  16
ENDBRANCH   8  11
ENDBRANCH   5   7
ENDBRANCH   1   5
BRANCH   3  25
ATOM     25  CA  LEU A   4      21.345   8.761  -8.135  1.00  0.00     0.171 C 
BRANCH  25  26
ATOM     26  C   LEU A   4      22.711   9.218  -8.517  1.00  0.00     0.243 C 
ATOM     27  N   ARG A   5      23.821   8.720  -7.785  1.00  0.00    -0.343 N 
ATOM     28  O   LEU A   4      22.874  10.033  -9.466  1.00  0.00    -0.273 OA
ATOM     29  H   UNL     1      23.667   8.030  -7.015  1.00  0.00     0.164 HD
BRANCH  27  30
ATOM     30  CA  ARG A   5      25.185   9.122  -8.073  1.00  0.00     0.171 C 
BRANCH  30  31
ATOM     31  C   ARG A   5      25.899   7.968  -8.685  1.00  0.00     0.243 C 
ATOM     32  N   ASN A   6      25.913   7.864 -10.102  1.00  0.00    -0.341 N 
ATOM     33  O   ARG A   5      26.447   7.087  -7.969  1.00  0.00    -0.273 OA
ATOM     34  H   UNL     1      25.488   8.647 -10.651  1.00  0.00     0.164 HD
BRANCH  32  35
ATOM     35  CA  ASN A   6      26.542   6.751 -10.804  1.00  0.00     0.201 C 
BRANCH  35  36
ATOM     36  C   ASN A   6      27.993   6.642 -10.416  1.00  0.00     0.326 C 
ATOM     37  O   ASN A   6      28.794   7.579 -10.677  1.00  0.00    -0.250 OA
BRANCH  36  38
ATOM     38  OXT ASN A   6      28.451   5.499  -9.768  1.00  0.00    -0.480 OA
ATOM     39  H   UNL     1      29.424   5.409  -9.499  1.00  0.00     0.296 HD
ENDBRANCH  36  38
ENDBRANCH  35  36
BRANCH  35  40
ATOM     40  CB  ASN A   6      26.424   6.946 -12.323  1.00  0.00     0.136 C 
BRANCH  40  41
ATOM     41  CG  ASN A   6      25.010   7.180 -12.773  1.00  0.00     0.220 C 
ATOM     42  ND2 ASN A   6      24.753   8.090 -13.833  1.00  0.00    -0.370 N 
ATOM     43  OD1 ASN A   6      24.053   6.558 -12.243  1.00  0.00    -0.275 OA
ATOM     44  H   UNL     1      25.533   8.600 -14.306  1.00  0.00     0.159 HD
ATOM     45  H   UNL     1      23.774   8.258 -14.156  1.00  0.00     0.159 HD
ENDBRANCH  40  41
ENDBRANCH  35  40
ENDBRANCH  32  35
ENDBRANCH  30  31
BRANCH  30  46
ATOM     46  CB  ARG A   5      25.863   9.605  -6.796  1.00  0.00     0.037 C 
BRANCH  46  47
ATOM     47  CG  ARG A   5      25.166  10.860  -6.270  1.00  0.00     0.024 C 
BRANCH  47  48
ATOM     48  CD  ARG A   5      25.842  11.390  -5.013  1.00  0.00     0.116 C 
BRANCH  48  49
ATOM     49  NE  ARG A   5      25.378  10.687  -3.820  1.00  0.00    -0.357 N 
ATOM     50  CZ  ARG A   5      25.470  11.282  -2.526  1.00  0.00     0.185 C 
ATOM     51  NH2 ARG A   5      26.109  12.546  -2.351  1.00  0.00    -0.370 N 
ATOM     52  H   UNL     1      24.899   9.761  -3.912  1.00  0.00     0.163 HD
ATOM     53  H   UNL     1      26.699  12.981  -3.092  1.00  0.00     0.159 HD
ATOM     54  H   UNL     1      26.084  13.022  -1.422  1.00  0.00     0.159 HD
BRANCH  50  55
ATOM     55  NH1 ARG A   5      24.956  10.671  -1.506  1.00  0.00    -0.270 NA
ATOM     56  H   UNL     1      24.999  11.075  -0.544  1.00  0.00     0.191 HD
ENDBRANCH  50  55
ENDBRANCH  48  49
ENDBRANCH  47  48
ENDBRANCH  46  47
ENDBRANCH  30  46
ENDBRANCH  27  30
ENDBRANCH  25  26
BRANCH  25  57
ATOM     57  CB  LEU A   4      20.653   8.000  -9.268  1.00  0.00     0.038 C 
BRANCH  57  58
ATOM     58  CG  LEU A   4      21.448   6.773  -9.767  1.00  0.00    -0.015 C 
ATOM     59  CD1 LEU A   4      21.762   5.779  -8.639  1.00  0.00     0.007 C 
ATOM     60  CD2 LEU A   4      20.661   6.069 -10.876  1.00  0.00     0.007 C 
ENDBRANCH  57  58
ENDBRANCH  25  57
ENDBRANCH   3  25
TORSDOF 24
