REMARK SMILES CC(C)C[C@H](NC(=O)[C@H](C)NC(=O)[C@H](Cc1ccccc1)NC(=O)[C@H](C)N)C(=O)N[C@@H](CCCNC(=N)N)C(=O)N[C@@H](CC(N)=O)C(=O)O
REMARK SMILES IDX 5 1 6 2 7 3 8 4 9 6 10 7 11 8 12 9 13 10 14 12 22 13 23 14
REMARK SMILES IDX 24 15 25 17 26 18 27 19 15 22 16 23 17 24 21 25 18 26 20 27
REMARK SMILES IDX 19 28 28 29 30 30 29 31 31 33 39 34 41 35 40 36 42 38 47 39
REMARK SMILES IDX 48 40 49 41 43 43 44 44 45 45 46 46 32 49 33 50 34 51 35 52
REMARK SMILES IDX 36 53 38 54 37 58 4 60 2 61 1 62 3 63
REMARK H PARENT 6 5 11 11 22 16 27 20 27 21 30 32 41 37 49 42 45 47 45 48
REMARK H PARENT 35 55 38 56 38 57 37 59
ROOT
ATOM      1  CA  LEU A   4      -0.670  -1.094   0.024  1.00  0.00     0.171 C 
ENDROOT
BRANCH   1   2
ATOM      2  N   LEU A   4       0.380  -0.424   0.798  1.00  0.00    -0.343 N 
ATOM      3  C   ALA A   3       1.399   0.381   0.185  1.00  0.00     0.242 C 
ATOM      4  O   ALA A   3       1.471   0.467  -1.072  1.00  0.00    -0.273 OA
ATOM      5  H   UNL     1       0.439  -0.604   1.826  1.00  0.00     0.164 HD
BRANCH   3   6
ATOM      6  CA  ALA A   3       2.338   1.184   1.042  1.00  0.00     0.168 C 
ATOM      7  CB  ALA A   3       1.788   2.596   1.242  1.00  0.00     0.041 C 
BRANCH   6   8
ATOM      8  N   ALA A   3       3.664   1.248   0.422  1.00  0.00    -0.343 N 
ATOM      9  C   PHE A   2       4.746   0.389   0.813  1.00  0.00     0.243 C 
ATOM     10  O   PHE A   2       4.574  -0.489   1.703  1.00  0.00    -0.273 OA
ATOM     11  H   UNL     1       3.800   1.877  -0.401  1.00  0.00     0.164 HD
BRANCH   9  12
ATOM     12  CA  PHE A   2       6.089   0.519   0.147  1.00  0.00     0.175 C 
BRANCH  12  13
ATOM     13  N   PHE A   2       7.145   0.532   1.165  1.00  0.00    -0.343 N 
ATOM     14  C   ALA A   1       7.815   1.733   1.576  1.00  0.00     0.237 C 
ATOM     15  O   ALA A   1       7.404   2.858   1.179  1.00  0.00    -0.273 OA
ATOM     16  H   UNL     1       7.391  -0.365   1.642  1.00  0.00     0.164 HD
BRANCH  14  17
ATOM     17  CA  ALA A   1       9.007   1.656   2.497  1.00  0.00     0.138 C 
ATOM     18  CB  ALA A   1       8.678   2.273   3.857  1.00  0.00     0.035 C 
BRANCH  17  19
ATOM     19  N   ALA A   1      10.171   2.321   1.906  1.00  0.00    -0.320 NA
ATOM     20  H   UNL     1       9.935   3.318   1.691  1.00  0.00     0.119 HD
ATOM     21  H   UNL     1      10.398   1.850   0.999  1.00  0.00     0.119 HD
ENDBRANCH  17  19
ENDBRANCH  14  17
ENDBRANCH  12  13
BRANCH  12  22
ATOM     22  CB  PHE A   2       6.310  -0.643  -0.835  1.00  0.00     0.070 C 
BRANCH  22  23
ATOM     23  CG  PHE A   2       7.600  -0.465  -1.594  1.00  0.00    -0.045 A 
ATOM     24  CD1 PHE A   2       8.797  -1.014  -1.103  1.00  0.00     0.004 A 
ATOM     25  CD2 PHE A   2       7.630   0.312  -2.764  1.00  0.00     0.004 A 
ATOM     26  CE1 PHE A   2      10.002  -0.795  -1.777  1.00  0.00     0.000 A 
ATOM     27  CE2 PHE A   2       8.836   0.524  -3.438  1.00  0.00     0.000 A 
ATOM     28  CZ  PHE A   2      10.021  -0.028  -2.945  1.00  0.00     0.000 A 
ENDBRANCH  22  23
ENDBRANCH  12  22
ENDBRANCH   9  12
ENDBRANCH   6   8
ENDBRANCH   3   6
ENDBRANCH   1   2
BRANCH   1  29
ATOM     29  C   LEU A   4      -1.953  -1.068   0.813  1.00  0.00     0.243 C 
ATOM     30  N   ARG A   5      -3.086  -0.331   0.324  1.00  0.00    -0.343 N 
ATOM     31  O   LEU A   4      -2.019  -1.684   1.914  1.00  0.00    -0.273 OA
ATOM     32  H   UNL     1      -2.969   0.227  -0.551  1.00  0.00     0.164 HD
BRANCH  30  33
ATOM     33  CA  ARG A   5      -4.400  -0.351   0.981  1.00  0.00     0.171 C 
BRANCH  33  34
ATOM     34  C   ARG A   5      -5.458  -0.880   0.048  1.00  0.00     0.243 C 
ATOM     35  N   ASN A   6      -6.679  -1.413   0.585  1.00  0.00    -0.341 N 
ATOM     36  O   ARG A   5      -5.284  -0.825  -1.199  1.00  0.00    -0.273 OA
ATOM     37  H   UNL     1      -6.778  -1.484   1.623  1.00  0.00     0.164 HD
BRANCH  35  38
ATOM     38  CA  ASN A   6      -7.750  -1.960  -0.254  1.00  0.00     0.201 C 
BRANCH  38  39
ATOM     39  C   ASN A   6      -9.071  -1.377   0.180  1.00  0.00     0.326 C 
ATOM     40  O   ASN A   6      -9.186  -0.128   0.316  1.00  0.00    -0.250 OA
BRANCH  39  41
ATOM     41  OXT ASN A   6     -10.181  -2.194   0.385  1.00  0.00    -0.480 OA
ATOM     42  H   UNL     1     -11.076  -1.797   0.647  1.00  0.00     0.296 HD
ENDBRANCH  39  41
ENDBRANCH  38  39
BRANCH  38  43
ATOM     43  CB  ASN A   6      -7.747  -3.498  -0.172  1.00  0.00     0.136 C 
BRANCH  43  44
ATOM     44  CG  ASN A   6      -6.446  -4.071  -0.657  1.00  0.00     0.220 C 
ATOM     45  ND2 ASN A   6      -6.147  -4.102  -2.053  1.00  0.00    -0.370 N 
ATOM     46  OD1 ASN A   6      -5.602  -4.504   0.173  1.00  0.00    -0.275 OA
ATOM     47  H   UNL     1      -5.241  -4.498  -2.391  1.00  0.00     0.159 HD
ATOM     48  H   UNL     1      -6.829  -3.735  -2.752  1.00  0.00     0.159 HD
ENDBRANCH  43  44
ENDBRANCH  38  43
ENDBRANCH  35  38
ENDBRANCH  33  34
BRANCH  33  49
ATOM     49  CB  ARG A   5      -4.753   1.043   1.544  1.00  0.00     0.037 C 
BRANCH  49  50
ATOM     50  CG  ARG A   5      -5.020   2.139   0.487  1.00  0.00     0.024 C 
BRANCH  50  51
ATOM     51  CD  ARG A   5      -6.512   2.281   0.151  1.00  0.00     0.116 C 
BRANCH  51  52
ATOM     52  NE  ARG A   5      -6.728   3.402  -0.764  1.00  0.00    -0.357 N 
ATOM     53  CZ  ARG A   5      -6.693   4.792  -0.387  1.00  0.00     0.185 C 
ATOM     54  NH2 ARG A   5      -6.845   5.792  -1.393  1.00  0.00    -0.370 N 
ATOM     55  H   UNL     1      -6.960   3.173  -1.758  1.00  0.00     0.163 HD
ATOM     56  H   UNL     1      -6.974   5.524  -2.394  1.00  0.00     0.159 HD
ATOM     57  H   UNL     1      -6.830   6.806  -1.141  1.00  0.00     0.159 HD
BRANCH  53  58
ATOM     58  NH1 ARG A   5      -6.542   5.162   0.847  1.00  0.00    -0.270 NA
ATOM     59  H   UNL     1      -6.437   4.500   1.645  1.00  0.00     0.191 HD
ENDBRANCH  53  58
ENDBRANCH  51  52
ENDBRANCH  50  51
ENDBRANCH  49  50
ENDBRANCH  33  49
ENDBRANCH  30  33
ENDBRANCH   1  29
BRANCH   1  60
ATOM     60  CB  LEU A   4      -0.220  -2.534  -0.316  1.00  0.00     0.038 C 
BRANCH  60  61
ATOM     61  CG  LEU A   4      -1.113  -3.321  -1.314  1.00  0.00    -0.015 C 
ATOM     62  CD1 LEU A   4      -1.384  -2.556  -2.617  1.00  0.00     0.007 C 
ATOM     63  CD2 LEU A   4      -2.425  -3.817  -0.690  1.00  0.00     0.007 C 
ENDBRANCH  60  61
ENDBRANCH   1  60
TORSDOF 24
