REMARK SMILES CC(C)C[C@H](NC(=O)[C@H](Cc1ccccc1)NC(=O)[C@@H](N)CO)C(=O)N[C@@H](C)C(=O)N[C@@H](CCCNC(=N)N)C(=O)N[C@@H](CO)C(=O)O
REMARK SMILES IDX 24 1 25 2 26 3 5 5 6 6 7 7 8 8 9 10 17 11 18 12 19 13 20 15
REMARK SMILES IDX 21 16 22 19 23 20 10 22 11 23 12 24 16 25 13 26 15 27 14 28
REMARK SMILES IDX 4 29 2 30 1 31 3 32 27 33 28 34 29 35 31 36 30 37 32 39
REMARK SMILES IDX 40 40 42 41 41 42 43 44 46 45 47 46 48 47 44 49 45 50 33 52
REMARK SMILES IDX 34 53 35 54 36 55 37 56 39 57 38 61
REMARK H PARENT 26 4 6 9 17 14 21 17 21 18 23 21 31 38 42 43 48 48 45 51 36 58
REMARK H PARENT 39 59 39 60 38 62
ROOT
ATOM      1  C   LEU A   3      20.054  10.082  -6.477  1.00  0.00     0.243 C 
ATOM      2  O   LEU A   3      20.167   9.158  -5.624  1.00  0.00    -0.273 OA
ATOM      3  N   ALA A   4      20.564   9.911  -7.787  1.00  0.00    -0.343 N 
ATOM      4  H   UNL     1      20.402  10.653  -8.506  1.00  0.00     0.164 HD
ENDROOT
BRANCH   1   5
ATOM      5  CA  LEU A   3      19.341  11.352  -6.147  1.00  0.00     0.171 C 
BRANCH   5   6
ATOM      6  N   LEU A   3      18.084  11.020  -5.538  1.00  0.00    -0.343 N 
ATOM      7  C   PHE A   2      16.887  11.744  -5.776  1.00  0.00     0.243 C 
ATOM      8  O   PHE A   2      16.905  12.795  -6.474  1.00  0.00    -0.273 OA
ATOM      9  H   UNL     1      18.156  10.385  -4.718  1.00  0.00     0.164 HD
BRANCH   7  10
ATOM     10  CA  PHE A   2      15.653  11.312  -5.056  1.00  0.00     0.175 C 
BRANCH  10  11
ATOM     11  N   PHE A   2      14.456  11.739  -5.766  1.00  0.00    -0.343 N 
ATOM     12  C   SER A   1      13.919  13.049  -5.633  1.00  0.00     0.239 C 
ATOM     13  O   SER A   1      14.449  13.867  -4.832  1.00  0.00    -0.273 OA
ATOM     14  H   UNL     1      13.869  11.000  -6.212  1.00  0.00     0.164 HD
BRANCH  12  15
ATOM     15  CA  SER A   1      12.662  13.410  -6.386  1.00  0.00     0.167 C 
BRANCH  15  16
ATOM     16  N   SER A   1      12.455  14.860  -6.398  1.00  0.00    -0.318 NA
ATOM     17  H   UNL     1      13.316  15.337  -6.755  1.00  0.00     0.119 HD
ATOM     18  H   UNL     1      12.286  15.190  -5.420  1.00  0.00     0.119 HD
ENDBRANCH  15  16
BRANCH  15  19
ATOM     19  CB  SER A   1      12.690  12.886  -7.840  1.00  0.00     0.184 C 
BRANCH  19  20
ATOM     20  OG  SER A   1      11.438  13.053  -8.445  1.00  0.00    -0.394 OA
ATOM     21  H   UNL     1      10.839  12.361  -8.060  1.00  0.00     0.210 HD
ENDBRANCH  19  20
ENDBRANCH  15  19
ENDBRANCH  12  15
ENDBRANCH  10  11
BRANCH  10  22
ATOM     22  CB  PHE A   2      15.610   9.772  -4.880  1.00  0.00     0.070 C 
BRANCH  22  23
ATOM     23  CG  PHE A   2      14.435   9.292  -4.091  1.00  0.00    -0.045 A 
ATOM     24  CD1 PHE A   2      13.898  10.048  -3.033  1.00  0.00     0.004 A 
ATOM     25  CD2 PHE A   2      13.964   7.991  -4.310  1.00  0.00     0.004 A 
ATOM     26  CE1 PHE A   2      12.866   9.535  -2.258  1.00  0.00     0.000 A 
ATOM     27  CE2 PHE A   2      12.937   7.476  -3.520  1.00  0.00     0.000 A 
ATOM     28  CZ  PHE A   2      12.384   8.252  -2.500  1.00  0.00     0.000 A 
ENDBRANCH  22  23
ENDBRANCH  10  22
ENDBRANCH   7  10
ENDBRANCH   5   6
BRANCH   5  29
ATOM     29  CB  LEU A   3      20.165  12.252  -5.216  1.00  0.00     0.038 C 
BRANCH  29  30
ATOM     30  CG  LEU A   3      20.417  11.679  -3.791  1.00  0.00    -0.015 C 
ATOM     31  CD1 LEU A   3      21.819  12.066  -3.316  1.00  0.00     0.007 C 
ATOM     32  CD2 LEU A   3      19.369  12.169  -2.781  1.00  0.00     0.007 C 
ENDBRANCH  29  30
ENDBRANCH   5  29
ENDBRANCH   1   5
BRANCH   3  33
ATOM     33  CA  ALA A   4      21.343   8.746  -8.158  1.00  0.00     0.168 C 
ATOM     34  CB  ALA A   4      20.665   8.004  -9.300  1.00  0.00     0.041 C 
BRANCH  33  35
ATOM     35  C   ALA A   4      22.710   9.198  -8.534  1.00  0.00     0.242 C 
ATOM     36  N   ARG A   5      23.818   8.706  -7.793  1.00  0.00    -0.343 N 
ATOM     37  O   ALA A   4      22.876  10.027  -9.470  1.00  0.00    -0.273 OA
ATOM     38  H   UNL     1      23.663   7.986  -7.051  1.00  0.00     0.164 HD
BRANCH  36  39
ATOM     39  CA  ARG A   5      25.182   9.115  -8.077  1.00  0.00     0.171 C 
BRANCH  39  40
ATOM     40  C   ARG A   5      25.899   7.963  -8.692  1.00  0.00     0.243 C 
ATOM     41  N   SER A   6      25.889   7.843 -10.110  1.00  0.00    -0.339 N 
ATOM     42  O   ARG A   5      26.457   7.090  -7.975  1.00  0.00    -0.273 OA
ATOM     43  H   UNL     1      25.387   8.577 -10.661  1.00  0.00     0.164 HD
BRANCH  41  44
ATOM     44  CA  SER A   6      26.545   6.746 -10.814  1.00  0.00     0.218 C 
BRANCH  44  45
ATOM     45  C   SER A   6      27.994   6.652 -10.418  1.00  0.00     0.328 C 
ATOM     46  O   SER A   6      28.791   7.590 -10.687  1.00  0.00    -0.250 OA
BRANCH  45  47
ATOM     47  OXT SER A   6      28.457   5.521  -9.753  1.00  0.00    -0.480 OA
ATOM     48  H   UNL     1      29.428   5.440  -9.478  1.00  0.00     0.296 HD
ENDBRANCH  45  47
ENDBRANCH  44  45
BRANCH  44  49
ATOM     49  CB  SER A   6      26.422   6.952 -12.328  1.00  0.00     0.193 C 
BRANCH  49  50
ATOM     50  OG  SER A   6      25.074   6.897 -12.707  1.00  0.00    -0.394 OA
ATOM     51  H   UNL     1      25.058   7.047 -13.688  1.00  0.00     0.210 HD
ENDBRANCH  49  50
ENDBRANCH  44  49
ENDBRANCH  41  44
ENDBRANCH  39  40
BRANCH  39  52
ATOM     52  CB  ARG A   5      25.857   9.599  -6.797  1.00  0.00     0.037 C 
BRANCH  52  53
ATOM     53  CG  ARG A   5      25.162  10.856  -6.272  1.00  0.00     0.024 C 
BRANCH  53  54
ATOM     54  CD  ARG A   5      25.838  11.389  -5.015  1.00  0.00     0.116 C 
BRANCH  54  55
ATOM     55  NE  ARG A   5      25.377  10.685  -3.821  1.00  0.00    -0.357 N 
ATOM     56  CZ  ARG A   5      25.469  11.281  -2.527  1.00  0.00     0.185 C 
ATOM     57  NH2 ARG A   5      26.107  12.546  -2.353  1.00  0.00    -0.370 N 
ATOM     58  H   UNL     1      24.894   9.762  -3.912  1.00  0.00     0.163 HD
ATOM     59  H   UNL     1      26.696  12.982  -3.095  1.00  0.00     0.159 HD
ATOM     60  H   UNL     1      26.080  13.024  -1.425  1.00  0.00     0.159 HD
BRANCH  56  61
ATOM     61  NH1 ARG A   5      24.955  10.672  -1.507  1.00  0.00    -0.270 NA
ATOM     62  H   UNL     1      24.996  11.077  -0.545  1.00  0.00     0.191 HD
ENDBRANCH  56  61
ENDBRANCH  54  55
ENDBRANCH  53  54
ENDBRANCH  52  53
ENDBRANCH  39  52
ENDBRANCH  36  39
ENDBRANCH  33  35
ENDBRANCH   3  33
TORSDOF 26
