REMARK SMILES N=C(N)NCCC[C@H](NC(=O)CNC(=O)[C@H](Cc1c[nH]cn1)NC(=O)[C@H](Cc1ccccc1)NC(=O)[C@@H](N)CO)C(=O)N[C@@H](CC(N)=O)C(=O)O
REMARK SMILES IDX 14 1 15 2 13 3 16 5 23 6 24 7 25 8 26 10 34 11 35 12 36 13
REMARK SMILES IDX 37 15 38 16 39 19 40 20 27 22 28 23 29 24 33 25 30 26 32 27
REMARK SMILES IDX 31 28 17 29 18 30 22 31 19 32 21 33 20 34 12 36 10 37 9 38
REMARK SMILES IDX 11 39 8 41 41 42 43 43 42 44 44 46 49 47 50 48 51 49 45 51
REMARK SMILES IDX 46 52 47 53 48 54 7 57 6 58 5 59 4 60 2 61 3 62 1 66
REMARK H PARENT 13 4 23 9 34 14 38 17 38 18 40 21 20 35 9 40 43 45 51 50 47 55
REMARK H PARENT 47 56 4 63 3 64 3 65 1 67
ROOT
ATOM      1  C   HIS A   3      20.060  10.087  -6.466  1.00  0.00     0.243 C 
ATOM      2  O   HIS A   3      20.188   9.174  -5.605  1.00  0.00    -0.273 OA
ATOM      3  N   GLY A   4      20.556   9.914  -7.785  1.00  0.00    -0.345 N 
ATOM      4  H   UNL     1      20.386  10.658  -8.500  1.00  0.00     0.164 HD
ENDROOT
BRANCH   1   5
ATOM      5  CA  HIS A   3      19.351  11.360  -6.133  1.00  0.00     0.177 C 
BRANCH   5   6
ATOM      6  N   HIS A   3      18.092  11.036  -5.514  1.00  0.00    -0.342 N 
ATOM      7  C   PHE A   2      16.891  11.746  -5.774  1.00  0.00     0.243 C 
ATOM      8  O   PHE A   2      16.907  12.792  -6.481  1.00  0.00    -0.273 OA
ATOM      9  H   UNL     1      18.167  10.466  -4.646  1.00  0.00     0.164 HD
BRANCH   7  10
ATOM     10  CA  PHE A   2      15.655  11.312  -5.058  1.00  0.00     0.175 C 
BRANCH  10  11
ATOM     11  N   PHE A   2      14.458  11.740  -5.769  1.00  0.00    -0.343 N 
ATOM     12  C   SER A   1      13.918  13.048  -5.633  1.00  0.00     0.239 C 
ATOM     13  O   SER A   1      14.448  13.866  -4.831  1.00  0.00    -0.273 OA
ATOM     14  H   UNL     1      13.875  11.001  -6.220  1.00  0.00     0.164 HD
BRANCH  12  15
ATOM     15  CA  SER A   1      12.662  13.412  -6.387  1.00  0.00     0.167 C 
BRANCH  15  16
ATOM     16  N   SER A   1      12.457  14.862  -6.397  1.00  0.00    -0.318 NA
ATOM     17  H   UNL     1      13.318  15.336  -6.758  1.00  0.00     0.119 HD
ATOM     18  H   UNL     1      12.292  15.192  -5.418  1.00  0.00     0.119 HD
ENDBRANCH  15  16
BRANCH  15  19
ATOM     19  CB  SER A   1      12.690  12.888  -7.840  1.00  0.00     0.184 C 
BRANCH  19  20
ATOM     20  OG  SER A   1      11.437  13.050  -8.444  1.00  0.00    -0.394 OA
ATOM     21  H   UNL     1      11.386  13.993  -8.750  1.00  0.00     0.210 HD
ENDBRANCH  19  20
ENDBRANCH  15  19
ENDBRANCH  12  15
ENDBRANCH  10  11
BRANCH  10  22
ATOM     22  CB  PHE A   2      15.614   9.773  -4.887  1.00  0.00     0.070 C 
BRANCH  22  23
ATOM     23  CG  PHE A   2      14.442   9.290  -4.091  1.00  0.00    -0.045 A 
ATOM     24  CD1 PHE A   2      13.902  10.047  -3.033  1.00  0.00     0.004 A 
ATOM     25  CD2 PHE A   2      13.967   7.990  -4.310  1.00  0.00     0.004 A 
ATOM     26  CE1 PHE A   2      12.868   9.536  -2.260  1.00  0.00     0.000 A 
ATOM     27  CE2 PHE A   2      12.939   7.477  -3.521  1.00  0.00     0.000 A 
ATOM     28  CZ  PHE A   2      12.386   8.253  -2.501  1.00  0.00     0.000 A 
ENDBRANCH  22  23
ENDBRANCH  10  22
ENDBRANCH   7  10
ENDBRANCH   5   6
BRANCH   5  29
ATOM     29  CB  HIS A   3      20.176  12.260  -5.202  1.00  0.00     0.093 C 
BRANCH  29  30
ATOM     30  CG  HIS A   3      20.427  11.668  -3.840  1.00  0.00     0.061 A 
ATOM     31  ND1 HIS A   3      21.497  10.906  -3.536  1.00  0.00    -0.242 NA
ATOM     32  CD2 HIS A   3      19.623  11.809  -2.730  1.00  0.00     0.107 A 
ATOM     33  CE1 HIS A   3      21.316  10.596  -2.235  1.00  0.00     0.196 A 
ATOM     34  NE2 HIS A   3      20.190  11.129  -1.723  1.00  0.00    -0.351 N 
ATOM     35  H   UNL     1      19.833  11.032  -0.747  1.00  0.00     0.167 HD
ENDBRANCH  29  30
ENDBRANCH   5  29
ENDBRANCH   1   5
BRANCH   3  36
ATOM     36  CA  GLY A   4      21.330   8.757  -8.191  1.00  0.00     0.216 C 
BRANCH  36  37
ATOM     37  C   GLY A   4      22.704   9.205  -8.534  1.00  0.00     0.240 C 
ATOM     38  N   ARG A   5      23.806   8.708  -7.787  1.00  0.00    -0.343 N 
ATOM     39  O   GLY A   4      22.880  10.029  -9.472  1.00  0.00    -0.273 OA
ATOM     40  H   UNL     1      23.641   7.991  -7.044  1.00  0.00     0.164 HD
BRANCH  38  41
ATOM     41  CA  ARG A   5      25.174   9.114  -8.068  1.00  0.00     0.171 C 
BRANCH  41  42
ATOM     42  C   ARG A   5      25.896   7.965  -8.684  1.00  0.00     0.243 C 
ATOM     43  N   ASN A   6      25.915   7.866 -10.101  1.00  0.00    -0.341 N 
ATOM     44  O   ARG A   5      26.447   7.086  -7.969  1.00  0.00    -0.273 OA
ATOM     45  H   UNL     1      25.496   8.652 -10.649  1.00  0.00     0.164 HD
BRANCH  43  46
ATOM     46  CA  ASN A   6      26.543   6.752 -10.803  1.00  0.00     0.201 C 
BRANCH  46  47
ATOM     47  C   ASN A   6      27.993   6.642 -10.416  1.00  0.00     0.326 C 
ATOM     48  O   ASN A   6      28.795   7.579 -10.677  1.00  0.00    -0.250 OA
BRANCH  47  49
ATOM     49  OXT ASN A   6      28.452   5.499  -9.769  1.00  0.00    -0.480 OA
ATOM     50  H   UNL     1      29.425   5.409  -9.501  1.00  0.00     0.296 HD
ENDBRANCH  47  49
ENDBRANCH  46  47
BRANCH  46  51
ATOM     51  CB  ASN A   6      26.424   6.947 -12.323  1.00  0.00     0.136 C 
BRANCH  51  52
ATOM     52  CG  ASN A   6      25.010   7.182 -12.772  1.00  0.00     0.220 C 
ATOM     53  ND2 ASN A   6      24.754   8.089 -13.834  1.00  0.00    -0.370 N 
ATOM     54  OD1 ASN A   6      24.051   6.563 -12.238  1.00  0.00    -0.275 OA
ATOM     55  H   UNL     1      23.775   8.257 -14.157  1.00  0.00     0.159 HD
ATOM     56  H   UNL     1      25.534   8.596 -14.309  1.00  0.00     0.159 HD
ENDBRANCH  51  52
ENDBRANCH  46  51
ENDBRANCH  43  46
ENDBRANCH  41  42
BRANCH  41  57
ATOM     57  CB  ARG A   5      25.851   9.597  -6.790  1.00  0.00     0.037 C 
BRANCH  57  58
ATOM     58  CG  ARG A   5      25.162  10.858  -6.270  1.00  0.00     0.024 C 
BRANCH  58  59
ATOM     59  CD  ARG A   5      25.839  11.389  -5.014  1.00  0.00     0.116 C 
BRANCH  59  60
ATOM     60  NE  ARG A   5      25.374  10.687  -3.820  1.00  0.00    -0.357 N 
ATOM     61  CZ  ARG A   5      25.468  11.282  -2.526  1.00  0.00     0.185 C 
ATOM     62  NH2 ARG A   5      26.108  12.545  -2.352  1.00  0.00    -0.370 N 
ATOM     63  H   UNL     1      24.888   9.765  -3.911  1.00  0.00     0.163 HD
ATOM     64  H   UNL     1      26.698  12.981  -3.094  1.00  0.00     0.159 HD
ATOM     65  H   UNL     1      26.084  13.022  -1.423  1.00  0.00     0.159 HD
BRANCH  61  66
ATOM     66  NH1 ARG A   5      24.955  10.672  -1.506  1.00  0.00    -0.270 NA
ATOM     67  H   UNL     1      24.998  11.076  -0.544  1.00  0.00     0.191 HD
ENDBRANCH  61  66
ENDBRANCH  59  60
ENDBRANCH  58  59
ENDBRANCH  57  58
ENDBRANCH  41  57
ENDBRANCH  38  41
ENDBRANCH  36  37
ENDBRANCH   3  36
TORSDOF 26
