REMARK SMILES CC(C)C[C@H](NC(=O)[C@H](CC(N)=O)NC(=O)[C@H](Cc1ccccc1)NC(=O)[C@@H](N)CO)C(=O)N[C@@H](CCCNC(=N)N)C(=O)NCC(=O)O
REMARK SMILES IDX 7 1 8 2 6 3 9 5 14 6 15 7 16 8 17 10 25 11 26 12 27 13 28 15
REMARK SMILES IDX 29 16 30 19 31 20 18 22 19 23 20 24 24 25 21 26 23 27 22 28
REMARK SMILES IDX 10 29 11 30 12 31 13 32 5 35 32 36 34 37 33 38 35 40 43 41
REMARK SMILES IDX 45 42 44 43 46 45 47 46 48 47 49 48 36 50 37 51 38 52 39 53
REMARK SMILES IDX 40 54 42 55 41 59 4 61 2 62 1 63 3 64
REMARK H PARENT 6 4 14 9 25 14 29 17 29 18 31 21 12 33 12 34 34 39 45 44 49 49
REMARK H PARENT 39 56 42 57 42 58 41 60
ROOT
ATOM      1  C   ASN A   3      20.052  10.096  -6.459  1.00  0.00     0.243 C 
ATOM      2  O   ASN A   3      20.172   9.184  -5.594  1.00  0.00    -0.273 OA
ATOM      3  N   LEU A   4      20.562   9.921  -7.771  1.00  0.00    -0.342 N 
ATOM      4  H   UNL     1      20.393  10.658  -8.494  1.00  0.00     0.164 HD
ENDROOT
BRANCH   1   5
ATOM      5  CA  ASN A   3      19.347  11.368  -6.131  1.00  0.00     0.180 C 
BRANCH   5   6
ATOM      6  N   ASN A   3      18.089  11.044  -5.509  1.00  0.00    -0.342 N 
ATOM      7  C   PHE A   2      16.887  11.750  -5.774  1.00  0.00     0.243 C 
ATOM      8  O   PHE A   2      16.903  12.794  -6.482  1.00  0.00    -0.273 OA
ATOM      9  H   UNL     1      18.165  10.482  -4.636  1.00  0.00     0.164 HD
BRANCH   7  10
ATOM     10  CA  PHE A   2      15.652  11.314  -5.058  1.00  0.00     0.175 C 
BRANCH  10  11
ATOM     11  N   PHE A   2      14.455  11.740  -5.769  1.00  0.00    -0.343 N 
ATOM     12  C   SER A   1      13.914  13.050  -5.637  1.00  0.00     0.239 C 
ATOM     13  O   SER A   1      14.441  13.870  -4.837  1.00  0.00    -0.273 OA
ATOM     14  H   UNL     1      13.869  10.999  -6.211  1.00  0.00     0.164 HD
BRANCH  12  15
ATOM     15  CA  SER A   1      12.661  13.409  -6.393  1.00  0.00     0.167 C 
BRANCH  15  16
ATOM     16  N   SER A   1      12.471  14.861  -6.379  1.00  0.00    -0.318 NA
ATOM     17  H   UNL     1      13.201  15.316  -6.976  1.00  0.00     0.119 HD
ATOM     18  H   UNL     1      11.538  15.087  -6.794  1.00  0.00     0.119 HD
ENDBRANCH  15  16
BRANCH  15  19
ATOM     19  CB  SER A   1      12.691  12.879  -7.846  1.00  0.00     0.184 C 
BRANCH  19  20
ATOM     20  OG  SER A   1      11.436  13.052  -8.443  1.00  0.00    -0.394 OA
ATOM     21  H   UNL     1      11.538  12.777  -9.391  1.00  0.00     0.210 HD
ENDBRANCH  19  20
ENDBRANCH  15  19
ENDBRANCH  12  15
ENDBRANCH  10  11
BRANCH  10  22
ATOM     22  CB  PHE A   2      15.613   9.774  -4.888  1.00  0.00     0.070 C 
BRANCH  22  23
ATOM     23  CG  PHE A   2      14.443   9.290  -4.090  1.00  0.00    -0.045 A 
ATOM     24  CD1 PHE A   2      13.902  10.047  -3.033  1.00  0.00     0.004 A 
ATOM     25  CD2 PHE A   2      13.968   7.990  -4.310  1.00  0.00     0.004 A 
ATOM     26  CE1 PHE A   2      12.868   9.536  -2.260  1.00  0.00     0.000 A 
ATOM     27  CE2 PHE A   2      12.939   7.477  -3.521  1.00  0.00     0.000 A 
ATOM     28  CZ  PHE A   2      12.386   8.252  -2.502  1.00  0.00     0.000 A 
ENDBRANCH  22  23
ENDBRANCH  10  22
ENDBRANCH   7  10
ENDBRANCH   5   6
BRANCH   5  29
ATOM     29  CB  ASN A   3      20.178  12.263  -5.202  1.00  0.00     0.134 C 
BRANCH  29  30
ATOM     30  CG  ASN A   3      20.419  11.673  -3.834  1.00  0.00     0.220 C 
ATOM     31  ND2 ASN A   3      19.496  11.905  -2.770  1.00  0.00    -0.370 N 
ATOM     32  OD1 ASN A   3      21.442  10.966  -3.629  1.00  0.00    -0.275 OA
ATOM     33  H   UNL     1      19.663  11.490  -1.827  1.00  0.00     0.159 HD
ATOM     34  H   UNL     1      18.641  12.485  -2.923  1.00  0.00     0.159 HD
ENDBRANCH  29  30
ENDBRANCH   5  29
ENDBRANCH   1   5
BRANCH   3  35
ATOM     35  CA  LEU A   4      21.348   8.760  -8.139  1.00  0.00     0.171 C 
BRANCH  35  36
ATOM     36  C   LEU A   4      22.712   9.217  -8.522  1.00  0.00     0.243 C 
ATOM     37  N   ARG A   5      23.824   8.720  -7.792  1.00  0.00    -0.343 N 
ATOM     38  O   LEU A   4      22.873  10.035  -9.469  1.00  0.00    -0.273 OA
ATOM     39  H   UNL     1      23.671   8.031  -7.021  1.00  0.00     0.164 HD
BRANCH  37  40
ATOM     40  CA  ARG A   5      25.186   9.120  -8.087  1.00  0.00     0.171 C 
BRANCH  40  41
ATOM     41  C   ARG A   5      25.897   7.960  -8.698  1.00  0.00     0.243 C 
ATOM     42  N   GLY A   6      25.891   7.823 -10.117  1.00  0.00    -0.343 N 
ATOM     43  O   ARG A   5      26.454   7.092  -7.973  1.00  0.00    -0.273 OA
ATOM     44  H   UNL     1      25.398   8.536 -10.701  1.00  0.00     0.164 HD
BRANCH  42  45
ATOM     45  CA  GLY A   6      26.551   6.716 -10.794  1.00  0.00     0.238 C 
BRANCH  45  46
ATOM     46  C   GLY A   6      28.000   6.644 -10.414  1.00  0.00     0.322 C 
ATOM     47  O   GLY A   6      28.781   7.588 -10.704  1.00  0.00    -0.250 OA
BRANCH  46  48
ATOM     48  OXT GLY A   6      28.483   5.528  -9.737  1.00  0.00    -0.480 OA
ATOM     49  H   UNL     1      29.458   5.464  -9.471  1.00  0.00     0.296 HD
ENDBRANCH  46  48
ENDBRANCH  45  46
ENDBRANCH  42  45
ENDBRANCH  40  41
BRANCH  40  50
ATOM     50  CB  ARG A   5      25.865   9.606  -6.808  1.00  0.00     0.037 C 
BRANCH  50  51
ATOM     51  CG  ARG A   5      25.166  10.858  -6.276  1.00  0.00     0.024 C 
BRANCH  51  52
ATOM     52  CD  ARG A   5      25.841  11.388  -5.018  1.00  0.00     0.116 C 
BRANCH  52  53
ATOM     53  NE  ARG A   5      25.377  10.684  -3.825  1.00  0.00    -0.357 N 
ATOM     54  CZ  ARG A   5      25.468  11.278  -2.529  1.00  0.00     0.185 C 
ATOM     55  NH2 ARG A   5      26.106  12.541  -2.352  1.00  0.00    -0.370 N 
ATOM     56  H   UNL     1      24.901   9.757  -3.924  1.00  0.00     0.163 HD
ATOM     57  H   UNL     1      26.084  13.006  -1.417  1.00  0.00     0.159 HD
ATOM     58  H   UNL     1      26.692  12.982  -3.093  1.00  0.00     0.159 HD
BRANCH  54  59
ATOM     59  NH1 ARG A   5      24.958  10.678  -1.501  1.00  0.00    -0.270 NA
ATOM     60  H   UNL     1      24.476   9.755  -1.585  1.00  0.00     0.191 HD
ENDBRANCH  54  59
ENDBRANCH  52  53
ENDBRANCH  51  52
ENDBRANCH  50  51
ENDBRANCH  40  50
ENDBRANCH  37  40
ENDBRANCH  35  36
BRANCH  35  61
ATOM     61  CB  LEU A   4      20.655   7.999  -9.272  1.00  0.00     0.038 C 
BRANCH  61  62
ATOM     62  CG  LEU A   4      21.449   6.770  -9.770  1.00  0.00    -0.015 C 
ATOM     63  CD1 LEU A   4      21.763   5.779  -8.639  1.00  0.00     0.007 C 
ATOM     64  CD2 LEU A   4      20.659   6.066 -10.876  1.00  0.00     0.007 C 
ENDBRANCH  61  62
ENDBRANCH  35  61
ENDBRANCH   3  35
TORSDOF 26
