REMARK SMILES CC(C)C[C@H](NC(=O)[C@H](CC(=O)O)NC(=O)CNC(=O)[C@@H](N)CO)C(=O)N[C@@H](CCCNC(=N)N)C(=O)N[C@@H](CC(N)=O)C(=O)O
REMARK SMILES IDX 7 1 8 2 6 3 9 5 14 6 15 7 16 8 17 10 18 11 19 12 20 13 21 15
REMARK SMILES IDX 22 16 23 19 24 20 10 22 11 23 12 24 13 25 5 27 25 28 27 29
REMARK SMILES IDX 26 30 28 32 36 33 38 34 37 35 39 37 44 38 45 39 46 40 40 42
REMARK SMILES IDX 41 43 42 44 43 45 29 48 30 49 31 50 32 51 33 52 35 53 34 57
REMARK SMILES IDX 4 59 2 60 1 61 3 62
REMARK H PARENT 6 4 14 9 18 14 22 17 22 18 24 21 13 26 27 31 38 36 46 41 42 46
REMARK H PARENT 42 47 32 54 35 55 35 56 34 58
ROOT
ATOM      1  C   ASP A   3       2.262  -1.812   0.344  1.00  0.00     0.243 C 
ATOM      2  O   ASP A   3       2.325  -0.733   0.993  1.00  0.00    -0.273 OA
ATOM      3  N   LEU A   4       1.131  -2.690   0.513  1.00  0.00    -0.342 N 
ATOM      4  H   UNL     1       1.103  -3.567  -0.054  1.00  0.00     0.164 HD
ENDROOT
BRANCH   1   5
ATOM      5  CA  ASP A   3       3.329  -2.127  -0.691  1.00  0.00     0.182 C 
BRANCH   5   6
ATOM      6  N   ASP A   3       4.396  -1.113  -0.699  1.00  0.00    -0.342 N 
ATOM      7  C   GLY A   2       5.285  -0.952  -1.816  1.00  0.00     0.240 C 
ATOM      8  O   GLY A   2       5.011  -1.479  -2.928  1.00  0.00    -0.273 OA
ATOM      9  H   UNL     1       4.630  -0.609   0.185  1.00  0.00     0.164 HD
BRANCH   7  10
ATOM     10  CA  GLY A   2       6.557  -0.173  -1.666  1.00  0.00     0.216 C 
BRANCH  10  11
ATOM     11  N   GLY A   2       6.538   1.006  -2.528  1.00  0.00    -0.346 N 
ATOM     12  C   SER A   1       5.755   2.168  -2.223  1.00  0.00     0.239 C 
ATOM     13  O   SER A   1       5.003   2.177  -1.209  1.00  0.00    -0.273 OA
ATOM     14  H   UNL     1       7.180   1.030  -3.354  1.00  0.00     0.164 HD
BRANCH  12  15
ATOM     15  CA  SER A   1       5.880   3.402  -3.082  1.00  0.00     0.167 C 
BRANCH  15  16
ATOM     16  N   SER A   1       4.648   4.193  -3.034  1.00  0.00    -0.318 NA
ATOM     17  H   UNL     1       3.867   3.611  -3.420  1.00  0.00     0.119 HD
ATOM     18  H   UNL     1       4.756   5.007  -3.683  1.00  0.00     0.119 HD
ENDBRANCH  15  16
BRANCH  15  19
ATOM     19  CB  SER A   1       7.081   4.246  -2.620  1.00  0.00     0.184 C 
BRANCH  19  20
ATOM     20  OG  SER A   1       6.915   4.679  -1.295  1.00  0.00    -0.394 OA
ATOM     21  H   UNL     1       6.316   5.471  -1.324  1.00  0.00     0.210 HD
ENDBRANCH  19  20
ENDBRANCH  15  19
ENDBRANCH  12  15
ENDBRANCH  10  11
ENDBRANCH   7  10
ENDBRANCH   5   6
BRANCH   5  22
ATOM     22  CB  ASP A   3       3.940  -3.536  -0.518  1.00  0.00     0.157 C 
BRANCH  22  23
ATOM     23  CG  ASP A   3       4.627  -3.743   0.802  1.00  0.00     0.305 C 
ATOM     24  OD1 ASP A   3       5.543  -2.963   1.175  1.00  0.00    -0.252 OA
BRANCH  23  25
ATOM     25  OD2 ASP A   3       4.313  -4.860   1.570  1.00  0.00    -0.481 OA
ATOM     26  H   UNL     1       4.775  -5.037   2.453  1.00  0.00     0.296 HD
ENDBRANCH  23  25
ENDBRANCH  22  23
ENDBRANCH   5  22
ENDBRANCH   1   5
BRANCH   3  27
ATOM     27  CA  LEU A   4      -0.083  -2.391   1.295  1.00  0.00     0.171 C 
BRANCH  27  28
ATOM     28  C   LEU A   4      -0.883  -1.276   0.669  1.00  0.00     0.243 C 
ATOM     29  N   ARG A   5      -2.304  -1.232   0.868  1.00  0.00    -0.343 N 
ATOM     30  O   LEU A   4      -0.311  -0.365   0.009  1.00  0.00    -0.273 OA
ATOM     31  H   UNL     1      -2.739  -1.959   1.483  1.00  0.00     0.164 HD
BRANCH  29  32
ATOM     32  CA  ARG A   5      -3.129  -0.113   0.400  1.00  0.00     0.171 C 
BRANCH  32  33
ATOM     33  C   ARG A   5      -2.998   1.056   1.340  1.00  0.00     0.243 C 
ATOM     34  N   ASN A   6      -3.228   2.390   0.864  1.00  0.00    -0.341 N 
ATOM     35  O   ARG A   5      -2.714   0.858   2.557  1.00  0.00    -0.273 OA
ATOM     36  H   UNL     1      -3.502   2.523  -0.136  1.00  0.00     0.164 HD
BRANCH  34  37
ATOM     37  CA  ASN A   6      -3.139   3.554   1.752  1.00  0.00     0.201 C 
BRANCH  37  38
ATOM     38  C   ASN A   6      -4.323   3.581   2.676  1.00  0.00     0.326 C 
ATOM     39  O   ASN A   6      -5.491   3.431   2.219  1.00  0.00    -0.250 OA
BRANCH  38  40
ATOM     40  OXT ASN A   6      -4.129   3.793   4.039  1.00  0.00    -0.480 OA
ATOM     41  H   UNL     1      -4.917   3.826   4.676  1.00  0.00     0.296 HD
ENDBRANCH  38  40
ENDBRANCH  37  38
BRANCH  37  42
ATOM     42  CB  ASN A   6      -3.072   4.865   0.948  1.00  0.00     0.136 C 
BRANCH  42  43
ATOM     43  CG  ASN A   6      -1.876   4.900   0.037  1.00  0.00     0.220 C 
ATOM     44  ND2 ASN A   6      -2.041   5.065  -1.371  1.00  0.00    -0.370 N 
ATOM     45  OD1 ASN A   6      -0.716   4.791   0.519  1.00  0.00    -0.275 OA
ATOM     46  H   UNL     1      -1.204   5.088  -1.997  1.00  0.00     0.159 HD
ATOM     47  H   UNL     1      -2.991   5.189  -1.790  1.00  0.00     0.159 HD
ENDBRANCH  42  43
ENDBRANCH  37  42
ENDBRANCH  34  37
ENDBRANCH  32  33
BRANCH  32  48
ATOM     48  CB  ARG A   5      -4.607  -0.532   0.291  1.00  0.00     0.037 C 
BRANCH  48  49
ATOM     49  CG  ARG A   5      -4.807  -1.639  -0.758  1.00  0.00     0.024 C 
BRANCH  49  50
ATOM     50  CD  ARG A   5      -6.279  -2.053  -0.880  1.00  0.00     0.116 C 
BRANCH  50  51
ATOM     51  NE  ARG A   5      -7.098  -0.953  -1.388  1.00  0.00    -0.357 N 
ATOM     52  CZ  ARG A   5      -7.077  -0.526  -2.758  1.00  0.00     0.185 C 
ATOM     53  NH2 ARG A   5      -7.834   0.621  -3.154  1.00  0.00    -0.370 N 
ATOM     54  H   UNL     1      -7.756  -0.479  -0.727  1.00  0.00     0.163 HD
ATOM     55  H   UNL     1      -7.837   0.943  -4.148  1.00  0.00     0.159 HD
ATOM     56  H   UNL     1      -8.366   1.177  -2.447  1.00  0.00     0.159 HD
BRANCH  52  57
ATOM     57  NH1 ARG A   5      -6.380  -1.177  -3.636  1.00  0.00    -0.270 NA
ATOM     58  H   UNL     1      -6.351  -0.887  -4.640  1.00  0.00     0.191 HD
ENDBRANCH  52  57
ENDBRANCH  50  51
ENDBRANCH  49  50
ENDBRANCH  48  49
ENDBRANCH  32  48
ENDBRANCH  29  32
ENDBRANCH  27  28
BRANCH  27  59
ATOM     59  CB  LEU A   4       0.203  -2.096   2.792  1.00  0.00     0.038 C 
BRANCH  59  60
ATOM     60  CG  LEU A   4       0.487  -3.335   3.679  1.00  0.00    -0.015 C 
ATOM     61  CD1 LEU A   4       1.687  -4.148   3.193  1.00  0.00     0.007 C 
ATOM     62  CD2 LEU A   4      -0.749  -4.227   3.865  1.00  0.00     0.007 C 
ENDBRANCH  59  60
ENDBRANCH  27  59
ENDBRANCH   3  27
TORSDOF 27
