REMARK SMILES CC(C)C[C@H](NC(=O)[C@H](Cc1c[nH]cn1)NC(=O)[C@@H](N)CO)C(=O)N[C@H](C(=O)N[C@@H](CCCNC(=N)N)C(=O)N[C@@H](CC(N)=O)C(=O)O)C(C)C
REMARK SMILES IDX 23 1 24 2 25 3 5 5 6 6 7 7 8 8 9 10 16 11 17 12 18 13 19 15
REMARK SMILES IDX 20 16 21 19 22 20 10 22 11 23 15 24 12 25 14 26 13 27 4 29
REMARK SMILES IDX 2 30 1 31 3 32 26 33 27 34 29 35 28 36 30 38 38 39 40 40
REMARK SMILES IDX 39 41 41 43 46 44 47 45 48 46 42 48 43 49 44 50 45 51 31 54
REMARK SMILES IDX 32 55 33 56 34 57 35 58 37 59 36 63 49 65 50 66 51 67
REMARK H PARENT 25 4 6 9 16 14 20 17 20 18 22 21 13 28 29 37 40 42 48 47 44 52
REMARK H PARENT 44 53 34 60 37 61 37 62 36 64
ROOT
ATOM      1  C   LEU A   3      20.049  10.081  -6.472  1.00  0.00     0.243 C 
ATOM      2  O   LEU A   3      20.163   9.155  -5.622  1.00  0.00    -0.273 OA
ATOM      3  N   VAL A   4      20.575   9.922  -7.778  1.00  0.00    -0.342 N 
ATOM      4  H   UNL     1      20.417  10.669  -8.493  1.00  0.00     0.164 HD
ENDROOT
BRANCH   1   5
ATOM      5  CA  LEU A   3      19.328  11.347  -6.138  1.00  0.00     0.171 C 
BRANCH   5   6
ATOM      6  N   LEU A   3      18.072  11.010  -5.519  1.00  0.00    -0.342 N 
ATOM      7  C   HIS A   2      16.874  11.738  -5.742  1.00  0.00     0.243 C 
ATOM      8  O   HIS A   2      16.890  12.786  -6.447  1.00  0.00    -0.273 OA
ATOM      9  H   UNL     1      18.141  10.365  -4.707  1.00  0.00     0.164 HD
BRANCH   7  10
ATOM     10  CA  HIS A   2      15.624  11.284  -5.036  1.00  0.00     0.177 C 
BRANCH  10  11
ATOM     11  N   HIS A   2      14.443  11.729  -5.762  1.00  0.00    -0.342 N 
ATOM     12  C   SER A   1      13.912  13.044  -5.635  1.00  0.00     0.239 C 
ATOM     13  O   SER A   1      14.445  13.863  -4.836  1.00  0.00    -0.273 OA
ATOM     14  H   UNL     1      13.870  11.001  -6.239  1.00  0.00     0.164 HD
BRANCH  12  15
ATOM     15  CA  SER A   1      12.661  13.410  -6.391  1.00  0.00     0.167 C 
BRANCH  15  16
ATOM     16  N   SER A   1      12.477  14.863  -6.373  1.00  0.00    -0.318 NA
ATOM     17  H   UNL     1      11.525  15.093  -6.739  1.00  0.00     0.119 HD
ATOM     18  H   UNL     1      13.180  15.315  -7.004  1.00  0.00     0.119 HD
ENDBRANCH  15  16
BRANCH  15  19
ATOM     19  CB  SER A   1      12.688  12.881  -7.847  1.00  0.00     0.184 C 
BRANCH  19  20
ATOM     20  OG  SER A   1      11.435  13.049  -8.450  1.00  0.00    -0.394 OA
ATOM     21  H   UNL     1      11.443  13.939  -8.890  1.00  0.00     0.210 HD
ENDBRANCH  19  20
ENDBRANCH  15  19
ENDBRANCH  12  15
ENDBRANCH  10  11
BRANCH  10  22
ATOM     22  CB  HIS A   2      15.577   9.740  -4.901  1.00  0.00     0.093 C 
BRANCH  22  23
ATOM     23  CG  HIS A   2      14.399   9.293  -4.101  1.00  0.00     0.061 A 
ATOM     24  ND1 HIS A   2      14.278   9.475  -2.770  1.00  0.00    -0.242 NA
ATOM     25  CD2 HIS A   2      13.264   8.689  -4.596  1.00  0.00     0.107 A 
ATOM     26  CE1 HIS A   2      13.063   8.962  -2.483  1.00  0.00     0.196 A 
ATOM     27  NE2 HIS A   2      12.428   8.481  -3.569  1.00  0.00    -0.351 N 
ATOM     28  H   UNL     1      11.481   8.044  -3.604  1.00  0.00     0.167 HD
ENDBRANCH  22  23
ENDBRANCH  10  22
ENDBRANCH   7  10
ENDBRANCH   5   6
BRANCH   5  29
ATOM     29  CB  LEU A   3      20.156  12.250  -5.215  1.00  0.00     0.038 C 
BRANCH  29  30
ATOM     30  CG  LEU A   3      20.415  11.679  -3.790  1.00  0.00    -0.015 C 
ATOM     31  CD1 LEU A   3      21.818  12.068  -3.319  1.00  0.00     0.007 C 
ATOM     32  CD2 LEU A   3      19.369  12.169  -2.778  1.00  0.00     0.007 C 
ENDBRANCH  29  30
ENDBRANCH   5  29
ENDBRANCH   1   5
BRANCH   3  33
ATOM     33  CA  VAL A   4      21.341   8.749  -8.158  1.00  0.00     0.174 C 
BRANCH  33  34
ATOM     34  C   VAL A   4      22.711   9.206  -8.528  1.00  0.00     0.243 C 
ATOM     35  N   ARG A   5      23.818   8.708  -7.790  1.00  0.00    -0.343 N 
ATOM     36  O   VAL A   4      22.878  10.032  -9.467  1.00  0.00    -0.273 OA
ATOM     37  H   UNL     1      23.662   7.983  -7.053  1.00  0.00     0.164 HD
BRANCH  35  38
ATOM     38  CA  ARG A   5      25.182   9.117  -8.072  1.00  0.00     0.171 C 
BRANCH  38  39
ATOM     39  C   ARG A   5      25.901   7.967  -8.685  1.00  0.00     0.243 C 
ATOM     40  N   ASN A   6      25.914   7.865 -10.102  1.00  0.00    -0.341 N 
ATOM     41  O   ARG A   5      26.449   7.087  -7.970  1.00  0.00    -0.273 OA
ATOM     42  H   UNL     1      25.491   8.648 -10.651  1.00  0.00     0.164 HD
BRANCH  40  43
ATOM     43  CA  ASN A   6      26.543   6.751 -10.804  1.00  0.00     0.201 C 
BRANCH  43  44
ATOM     44  C   ASN A   6      27.993   6.642 -10.416  1.00  0.00     0.326 C 
ATOM     45  O   ASN A   6      28.794   7.579 -10.677  1.00  0.00    -0.250 OA
BRANCH  44  46
ATOM     46  OXT ASN A   6      28.452   5.498  -9.770  1.00  0.00    -0.480 OA
ATOM     47  H   UNL     1      29.425   5.408  -9.502  1.00  0.00     0.296 HD
ENDBRANCH  44  46
ENDBRANCH  43  44
BRANCH  43  48
ATOM     48  CB  ASN A   6      26.425   6.947 -12.324  1.00  0.00     0.136 C 
BRANCH  48  49
ATOM     49  CG  ASN A   6      25.010   7.181 -12.773  1.00  0.00     0.220 C 
ATOM     50  ND2 ASN A   6      24.754   8.091 -13.834  1.00  0.00    -0.370 N 
ATOM     51  OD1 ASN A   6      24.053   6.559 -12.242  1.00  0.00    -0.275 OA
ATOM     52  H   UNL     1      25.533   8.599 -14.307  1.00  0.00     0.159 HD
ATOM     53  H   UNL     1      23.775   8.258 -14.157  1.00  0.00     0.159 HD
ENDBRANCH  48  49
ENDBRANCH  43  48
ENDBRANCH  40  43
ENDBRANCH  38  39
BRANCH  38  54
ATOM     54  CB  ARG A   5      25.856   9.600  -6.792  1.00  0.00     0.037 C 
BRANCH  54  55
ATOM     55  CG  ARG A   5      25.162  10.857  -6.270  1.00  0.00     0.024 C 
BRANCH  55  56
ATOM     56  CD  ARG A   5      25.838  11.390  -5.014  1.00  0.00     0.116 C 
BRANCH  56  57
ATOM     57  NE  ARG A   5      25.377  10.686  -3.820  1.00  0.00    -0.357 N 
ATOM     58  CZ  ARG A   5      25.469  11.281  -2.527  1.00  0.00     0.185 C 
ATOM     59  NH2 ARG A   5      26.107  12.546  -2.352  1.00  0.00    -0.370 N 
ATOM     60  H   UNL     1      24.894   9.763  -3.911  1.00  0.00     0.163 HD
ATOM     61  H   UNL     1      26.696  12.982  -3.094  1.00  0.00     0.159 HD
ATOM     62  H   UNL     1      26.080  13.024  -1.424  1.00  0.00     0.159 HD
BRANCH  58  63
ATOM     63  NH1 ARG A   5      24.954  10.672  -1.507  1.00  0.00    -0.270 NA
ATOM     64  H   UNL     1      24.995  11.077  -0.545  1.00  0.00     0.191 HD
ENDBRANCH  58  63
ENDBRANCH  56  57
ENDBRANCH  55  56
ENDBRANCH  54  55
ENDBRANCH  38  54
ENDBRANCH  35  38
ENDBRANCH  33  34
BRANCH  33  65
ATOM     65  CB  VAL A   4      20.644   8.002  -9.312  1.00  0.00     0.015 C 
ATOM     66  CG1 VAL A   4      21.450   6.771  -9.755  1.00  0.00     0.010 C 
ATOM     67  CG2 VAL A   4      19.224   7.569  -8.914  1.00  0.00     0.010 C 
ENDBRANCH  33  65
ENDBRANCH   3  33
TORSDOF 27
