REMARK SMILES CC(C)C[C@H](NC(=O)[C@H](Cc1c[nH]cn1)NC(=O)[C@H](C)NC(=O)[C@@H](N)CO)C(=O)N[C@@H](CCCNC(=N)N)C(=O)N[C@@H](CC(N)=O)C(=O)O
REMARK SMILES IDX 7 1 8 2 6 3 9 5 16 6 17 7 18 8 19 10 20 11 21 12 22 13 23 14
REMARK SMILES IDX 24 16 25 17 26 20 27 21 10 23 11 24 15 25 12 26 14 27 13 28
REMARK SMILES IDX 5 30 28 31 30 32 29 33 31 35 39 36 41 37 40 38 42 40 47 41
REMARK SMILES IDX 48 42 49 43 43 45 44 46 45 47 46 48 32 51 33 52 34 53 35 54
REMARK SMILES IDX 36 55 38 56 37 60 4 62 2 63 1 64 3 65
REMARK H PARENT 6 4 16 9 21 15 25 18 25 19 27 22 13 29 30 34 41 39 49 44 45 49
REMARK H PARENT 45 50 35 57 38 58 38 59 37 61
ROOT
ATOM      1  C   HIS A   3       1.877  -0.403  -0.463  1.00  0.00     0.243 C 
ATOM      2  O   HIS A   3       2.116  -1.572  -0.049  1.00  0.00    -0.273 OA
ATOM      3  N   LEU A   4       0.588   0.186  -0.231  1.00  0.00    -0.342 N 
ATOM      4  H   UNL     1       0.340   1.062  -0.739  1.00  0.00     0.164 HD
ENDROOT
BRANCH   1   5
ATOM      5  CA  HIS A   3       2.959   0.383  -1.171  1.00  0.00     0.177 C 
BRANCH   5   6
ATOM      6  N   HIS A   3       4.199  -0.399  -1.250  1.00  0.00    -0.342 N 
ATOM      7  C   ALA A   2       5.093  -0.531  -0.134  1.00  0.00     0.242 C 
ATOM      8  O   ALA A   2       4.939   0.187   0.892  1.00  0.00    -0.273 OA
ATOM      9  H   UNL     1       4.350  -1.025  -2.075  1.00  0.00     0.164 HD
BRANCH   7  10
ATOM     10  CA  ALA A   2       6.173  -1.579  -0.158  1.00  0.00     0.168 C 
ATOM     11  CB  ALA A   2       5.686  -2.842   0.554  1.00  0.00     0.041 C 
BRANCH  10  12
ATOM     12  N   ALA A   2       7.395  -1.071   0.473  1.00  0.00    -0.343 N 
ATOM     13  C   SER A   1       8.219  -0.084  -0.161  1.00  0.00     0.239 C 
ATOM     14  O   SER A   1       7.860   0.433  -1.255  1.00  0.00    -0.273 OA
ATOM     15  H   UNL     1       7.704  -1.463   1.393  1.00  0.00     0.164 HD
BRANCH  13  16
ATOM     16  CA  SER A   1       9.490   0.378   0.504  1.00  0.00     0.167 C 
BRANCH  16  17
ATOM     17  N   SER A   1      10.552   0.540  -0.491  1.00  0.00    -0.318 NA
ATOM     18  H   UNL     1      11.431   0.814   0.006  1.00  0.00     0.119 HD
ATOM     19  H   UNL     1      10.744  -0.397  -0.919  1.00  0.00     0.119 HD
ENDBRANCH  16  17
BRANCH  16  20
ATOM     20  CB  SER A   1       9.248   1.694   1.257  1.00  0.00     0.184 C 
BRANCH  20  21
ATOM     21  OG  SER A   1       8.922   2.722   0.359  1.00  0.00    -0.394 OA
ATOM     22  H   UNL     1       8.928   3.562   0.888  1.00  0.00     0.210 HD
ENDBRANCH  20  21
ENDBRANCH  16  20
ENDBRANCH  13  16
ENDBRANCH  10  12
ENDBRANCH   7  10
ENDBRANCH   5   6
BRANCH   5  23
ATOM     23  CB  HIS A   3       2.531   0.864  -2.576  1.00  0.00     0.093 C 
BRANCH  23  24
ATOM     24  CG  HIS A   3       2.032  -0.243  -3.459  1.00  0.00     0.061 A 
ATOM     25  ND1 HIS A   3       2.818  -0.970  -4.280  1.00  0.00    -0.242 NA
ATOM     26  CD2 HIS A   3       0.729  -0.679  -3.554  1.00  0.00     0.107 A 
ATOM     27  CE1 HIS A   3       1.962  -1.835  -4.865  1.00  0.00     0.196 A 
ATOM     28  NE2 HIS A   3       0.692  -1.682  -4.444  1.00  0.00    -0.351 N 
ATOM     29  H   UNL     1      -0.145  -2.226  -4.749  1.00  0.00     0.167 HD
ENDBRANCH  23  24
ENDBRANCH   5  23
ENDBRANCH   1   5
BRANCH   3  30
ATOM     30  CA  LEU A   4      -0.345  -0.347   0.768  1.00  0.00     0.171 C 
BRANCH  30  31
ATOM     31  C   LEU A   4      -1.784  -0.063   0.374  1.00  0.00     0.243 C 
ATOM     32  N   ARG A   5      -2.856  -0.149   1.337  1.00  0.00    -0.343 N 
ATOM     33  O   LEU A   4      -2.047   0.156  -0.841  1.00  0.00    -0.273 OA
ATOM     34  H   UNL     1      -2.619  -0.209   2.350  1.00  0.00     0.164 HD
BRANCH  32  35
ATOM     35  CA  ARG A   5      -4.287  -0.240   1.007  1.00  0.00     0.171 C 
BRANCH  35  36
ATOM     36  C   ARG A   5      -4.608  -1.586   0.405  1.00  0.00     0.243 C 
ATOM     37  N   ASN A   6      -5.736  -2.338   0.882  1.00  0.00    -0.341 N 
ATOM     38  O   ARG A   5      -3.904  -2.036  -0.540  1.00  0.00    -0.273 OA
ATOM     39  H   UNL     1      -6.375  -1.896   1.583  1.00  0.00     0.164 HD
BRANCH  37  40
ATOM     40  CA  ASN A   6      -6.075  -3.661   0.347  1.00  0.00     0.201 C 
BRANCH  40  41
ATOM     41  C   ASN A   6      -6.786  -3.505  -0.969  1.00  0.00     0.326 C 
ATOM     42  O   ASN A   6      -7.760  -2.714  -1.073  1.00  0.00    -0.250 OA
BRANCH  41  43
ATOM     43  OXT ASN A   6      -6.390  -4.266  -2.065  1.00  0.00    -0.480 OA
ATOM     44  H   UNL     1      -6.868  -4.186  -2.957  1.00  0.00     0.296 HD
ENDBRANCH  41  43
ENDBRANCH  40  41
BRANCH  40  45
ATOM     45  CB  ASN A   6      -6.946  -4.434   1.355  1.00  0.00     0.136 C 
BRANCH  45  46
ATOM     46  CG  ASN A   6      -7.161  -5.859   0.933  1.00  0.00     0.220 C 
ATOM     47  ND2 ASN A   6      -6.142  -6.836   1.143  1.00  0.00    -0.370 N 
ATOM     48  OD1 ASN A   6      -8.238  -6.190   0.366  1.00  0.00    -0.275 OA
ATOM     49  H   UNL     1      -6.307  -7.834   0.880  1.00  0.00     0.159 HD
ATOM     50  H   UNL     1      -5.241  -6.573   1.599  1.00  0.00     0.159 HD
ENDBRANCH  45  46
ENDBRANCH  40  45
ENDBRANCH  37  40
ENDBRANCH  35  36
BRANCH  35  51
ATOM     51  CB  ARG A   5      -4.784   0.906   0.100  1.00  0.00     0.037 C 
BRANCH  51  52
ATOM     52  CG  ARG A   5      -4.408   2.293   0.645  1.00  0.00     0.024 C 
BRANCH  52  53
ATOM     53  CD  ARG A   5      -4.926   3.403  -0.275  1.00  0.00     0.116 C 
BRANCH  53  54
ATOM     54  NE  ARG A   5      -4.525   4.719   0.218  1.00  0.00    -0.357 N 
ATOM     55  CZ  ARG A   5      -4.839   5.921  -0.500  1.00  0.00     0.185 C 
ATOM     56  NH2 ARG A   5      -4.364   7.179  -0.016  1.00  0.00    -0.370 N 
ATOM     57  H   UNL     1      -3.974   4.799   1.102  1.00  0.00     0.163 HD
ATOM     58  H   UNL     1      -4.584   8.066  -0.521  1.00  0.00     0.159 HD
ATOM     59  H   UNL     1      -3.795   7.226   0.859  1.00  0.00     0.159 HD
BRANCH  55  60
ATOM     60  NH1 ARG A   5      -5.551   5.868  -1.581  1.00  0.00    -0.270 NA
ATOM     61  H   UNL     1      -5.795   6.726  -2.123  1.00  0.00     0.191 HD
ENDBRANCH  55  60
ENDBRANCH  53  54
ENDBRANCH  52  53
ENDBRANCH  51  52
ENDBRANCH  35  51
ENDBRANCH  32  35
ENDBRANCH  30  31
BRANCH  30  62
ATOM     62  CB  LEU A   4       0.053   0.140   2.185  1.00  0.00     0.038 C 
BRANCH  62  63
ATOM     63  CG  LEU A   4      -0.224   1.639   2.490  1.00  0.00    -0.015 C 
ATOM     64  CD1 LEU A   4       0.840   2.568   1.878  1.00  0.00     0.007 C 
ATOM     65  CD2 LEU A   4      -0.274   1.860   4.010  1.00  0.00     0.007 C 
ENDBRANCH  62  63
ENDBRANCH  30  62
ENDBRANCH   3  30
TORSDOF 26
