REMARK SMILES CC(C)C[C@H](NC(=O)[C@@H]1CCCN1C(=O)[C@@H](N)CO)C(=O)N[C@@H](CC(N)=O)C(=O)N[C@@H](CCCNC(=N)N)C(=O)N[C@@H](CC(N)=O)C(=O)O
REMARK SMILES IDX 20 1 21 2 22 3 5 5 6 6 7 7 8 8 9 10 13 11 12 12 10 13 11 14
REMARK SMILES IDX 14 15 15 16 16 17 17 18 18 21 19 22 4 24 2 25 1 26 3 27
REMARK SMILES IDX 23 28 28 29 30 30 29 31 31 33 39 34 41 35 40 36 42 38 47 39
REMARK SMILES IDX 48 40 49 41 43 43 44 44 45 45 46 46 32 49 33 50 34 51 35 52
REMARK SMILES IDX 36 53 38 54 37 58 24 60 25 61 26 62 27 63
REMARK H PARENT 22 4 6 9 17 19 17 20 19 23 30 32 41 37 49 42 45 47 45 48 35 55
REMARK H PARENT 38 56 38 57 37 59 26 64 26 65
ROOT
ATOM      1  C   LEU A   3      20.027  10.064  -6.462  1.00  0.00     0.243 C 
ATOM      2  O   LEU A   3      20.153   9.141  -5.613  1.00  0.00    -0.273 OA
ATOM      3  N   ASN A   4      20.562   9.914  -7.769  1.00  0.00    -0.342 N 
ATOM      4  H   UNL     1      20.399  10.661  -8.483  1.00  0.00     0.164 HD
ENDROOT
BRANCH   1   5
ATOM      5  CA  LEU A   3      19.297  11.322  -6.119  1.00  0.00     0.171 C 
BRANCH   5   6
ATOM      6  N   LEU A   3      18.016  10.993  -5.514  1.00  0.00    -0.343 N 
ATOM      7  C   PRO A   2      16.851  11.777  -5.748  1.00  0.00     0.243 C 
ATOM      8  O   PRO A   2      16.920  12.826  -6.443  1.00  0.00    -0.273 OA
ATOM      9  H   UNL     1      17.966  10.211  -4.823  1.00  0.00     0.164 HD
BRANCH   7  10
ATOM     10  CA  PRO A   2      15.537  11.364  -5.147  1.00  0.00     0.174 C 
ATOM     11  N   PRO A   2      15.396   9.908  -5.100  1.00  0.00    -0.329 N 
ATOM     12  CD  PRO A   2      15.315   9.413  -3.733  1.00  0.00     0.120 C 
ATOM     13  CB  PRO A   2      15.400  11.846  -3.700  1.00  0.00     0.037 C 
ATOM     14  CG  PRO A   2      15.540  10.609  -2.821  1.00  0.00     0.024 C 
BRANCH  11  15
ATOM     15  C   SER A   1      15.338   8.984  -6.218  1.00  0.00     0.242 C 
ATOM     16  O   SER A   1      15.408   7.748  -5.973  1.00  0.00    -0.273 OA
BRANCH  15  17
ATOM     17  CA  SER A   1      15.219   9.380  -7.679  1.00  0.00     0.167 C 
BRANCH  17  18
ATOM     18  N   SER A   1      14.425  10.598  -7.868  1.00  0.00    -0.318 NA
ATOM     19  H   UNL     1      13.901  10.517  -8.770  1.00  0.00     0.119 HD
ATOM     20  H   UNL     1      15.054  11.426  -7.979  1.00  0.00     0.119 HD
ENDBRANCH  17  18
BRANCH  17  21
ATOM     21  CB  SER A   1      16.599   9.463  -8.361  1.00  0.00     0.184 C 
BRANCH  21  22
ATOM     22  OG  SER A   1      16.454   9.621  -9.746  1.00  0.00    -0.394 OA
ATOM     23  H   UNL     1      16.216   8.729 -10.111  1.00  0.00     0.210 HD
ENDBRANCH  21  22
ENDBRANCH  17  21
ENDBRANCH  15  17
ENDBRANCH  11  15
ENDBRANCH   7  10
ENDBRANCH   5   6
BRANCH   5  24
ATOM     24  CB  LEU A   3      20.132  12.234  -5.209  1.00  0.00     0.038 C 
BRANCH  24  25
ATOM     25  CG  LEU A   3      20.411  11.669  -3.790  1.00  0.00    -0.015 C 
ATOM     26  CD1 LEU A   3      21.814  12.069  -3.327  1.00  0.00     0.007 C 
ATOM     27  CD2 LEU A   3      19.368  12.152  -2.778  1.00  0.00     0.007 C 
ENDBRANCH  24  25
ENDBRANCH   5  24
ENDBRANCH   1   5
BRANCH   3  28
ATOM     28  CA  ASN A   4      21.343   8.750  -8.148  1.00  0.00     0.180 C 
BRANCH  28  29
ATOM     29  C   ASN A   4      22.710   9.205  -8.528  1.00  0.00     0.243 C 
ATOM     30  N   ARG A   5      23.819   8.708  -7.793  1.00  0.00    -0.343 N 
ATOM     31  O   ASN A   4      22.874  10.030  -9.469  1.00  0.00    -0.273 OA
ATOM     32  H   UNL     1      23.664   7.982  -7.056  1.00  0.00     0.164 HD
BRANCH  30  33
ATOM     33  CA  ARG A   5      25.182   9.118  -8.073  1.00  0.00     0.171 C 
BRANCH  33  34
ATOM     34  C   ARG A   5      25.901   7.968  -8.686  1.00  0.00     0.243 C 
ATOM     35  N   ASN A   6      25.915   7.865 -10.103  1.00  0.00    -0.341 N 
ATOM     36  O   ARG A   5      26.449   7.087  -7.970  1.00  0.00    -0.273 OA
ATOM     37  H   UNL     1      25.490   8.648 -10.651  1.00  0.00     0.164 HD
BRANCH  35  38
ATOM     38  CA  ASN A   6      26.544   6.752 -10.805  1.00  0.00     0.201 C 
BRANCH  38  39
ATOM     39  C   ASN A   6      27.994   6.642 -10.415  1.00  0.00     0.326 C 
ATOM     40  O   ASN A   6      28.796   7.579 -10.676  1.00  0.00    -0.250 OA
BRANCH  39  41
ATOM     41  OXT ASN A   6      28.452   5.499  -9.767  1.00  0.00    -0.480 OA
ATOM     42  H   UNL     1      29.424   5.409  -9.497  1.00  0.00     0.296 HD
ENDBRANCH  39  41
ENDBRANCH  38  39
BRANCH  38  43
ATOM     43  CB  ASN A   6      26.430   6.950 -12.325  1.00  0.00     0.136 C 
BRANCH  43  44
ATOM     44  CG  ASN A   6      25.017   7.181 -12.776  1.00  0.00     0.220 C 
ATOM     45  ND2 ASN A   6      24.757   8.092 -13.834  1.00  0.00    -0.370 N 
ATOM     46  OD1 ASN A   6      24.063   6.553 -12.249  1.00  0.00    -0.275 OA
ATOM     47  H   UNL     1      25.534   8.607 -14.305  1.00  0.00     0.159 HD
ATOM     48  H   UNL     1      23.777   8.256 -14.158  1.00  0.00     0.159 HD
ENDBRANCH  43  44
ENDBRANCH  38  43
ENDBRANCH  35  38
ENDBRANCH  33  34
BRANCH  33  49
ATOM     49  CB  ARG A   5      25.856   9.600  -6.793  1.00  0.00     0.037 C 
BRANCH  49  50
ATOM     50  CG  ARG A   5      25.162  10.857  -6.270  1.00  0.00     0.024 C 
BRANCH  50  51
ATOM     51  CD  ARG A   5      25.838  11.390  -5.014  1.00  0.00     0.116 C 
BRANCH  51  52
ATOM     52  NE  ARG A   5      25.377  10.686  -3.820  1.00  0.00    -0.357 N 
ATOM     53  CZ  ARG A   5      25.469  11.281  -2.527  1.00  0.00     0.185 C 
ATOM     54  NH2 ARG A   5      26.107  12.546  -2.352  1.00  0.00    -0.370 N 
ATOM     55  H   UNL     1      24.894   9.763  -3.911  1.00  0.00     0.163 HD
ATOM     56  H   UNL     1      26.080  13.024  -1.424  1.00  0.00     0.159 HD
ATOM     57  H   UNL     1      26.696  12.982  -3.094  1.00  0.00     0.159 HD
BRANCH  53  58
ATOM     58  NH1 ARG A   5      24.954  10.672  -1.507  1.00  0.00    -0.270 NA
ATOM     59  H   UNL     1      24.996  11.077  -0.545  1.00  0.00     0.191 HD
ENDBRANCH  53  58
ENDBRANCH  51  52
ENDBRANCH  50  51
ENDBRANCH  49  50
ENDBRANCH  33  49
ENDBRANCH  30  33
ENDBRANCH  28  29
BRANCH  28  60
ATOM     60  CB  ASN A   4      20.643   7.999  -9.283  1.00  0.00     0.134 C 
BRANCH  60  61
ATOM     61  CG  ASN A   4      21.412   6.794  -9.755  1.00  0.00     0.220 C 
ATOM     62  ND2 ASN A   4      21.815   5.770  -8.844  1.00  0.00    -0.370 N 
ATOM     63  OD1 ASN A   4      21.646   6.657 -10.984  1.00  0.00    -0.275 OA
ATOM     64  H   UNL     1      22.362   4.949  -9.188  1.00  0.00     0.159 HD
ATOM     65  H   UNL     1      21.542   5.803  -7.838  1.00  0.00     0.159 HD
ENDBRANCH  60  61
ENDBRANCH  28  60
ENDBRANCH   3  28
TORSDOF 26
