REMARK SMILES CC[C@H](C)[C@H](NC(=O)[C@@H](N)CO)C(=O)N[C@@H](CO)C(=O)N[C@@H](CC(C)C)C(=O)N[C@@H](CCCNC(=N)N)C(=O)N[C@@H](CC(N)=O)C(=O)O
REMARK SMILES IDX 19 1 20 2 21 3 16 5 15 6 13 7 14 8 5 10 6 11 7 12 8 13 9 15
REMARK SMILES IDX 10 16 11 19 12 20 3 22 4 23 2 24 1 25 17 26 18 27 22 29
REMARK SMILES IDX 27 30 29 31 28 32 30 34 38 35 40 36 39 37 41 39 46 40 47 41
REMARK SMILES IDX 48 42 42 44 43 45 44 46 45 47 31 50 32 51 33 52 34 53 35 54
REMARK SMILES IDX 37 55 36 59 23 61 24 62 25 63 26 64
REMARK H PARENT 21 4 15 9 6 14 10 17 10 18 12 21 18 28 29 33 40 38 48 43 44 48
REMARK H PARENT 44 49 34 56 37 57 37 58 36 60
ROOT
ATOM      1  C   SER A   3       1.121  -0.848   0.717  1.00  0.00     0.245 C 
ATOM      2  O   SER A   3       0.834   0.382   0.760  1.00  0.00    -0.273 OA
ATOM      3  N   LEU A   4       0.661  -1.660  -0.373  1.00  0.00    -0.342 N 
ATOM      4  H   UNL     1       0.987  -2.649  -0.428  1.00  0.00     0.164 HD
ENDROOT
BRANCH   1   5
ATOM      5  CA  SER A   3       1.913  -1.464   1.837  1.00  0.00     0.197 C 
BRANCH   5   6
ATOM      6  N   SER A   3       3.015  -0.577   2.228  1.00  0.00    -0.340 N 
ATOM      7  C   ILE A   2       4.115  -0.299   1.347  1.00  0.00     0.243 C 
ATOM      8  O   ILE A   2       4.129  -0.789   0.185  1.00  0.00    -0.273 OA
ATOM      9  H   UNL     1       3.011  -0.142   3.177  1.00  0.00     0.164 HD
BRANCH   7  10
ATOM     10  CA  ILE A   2       5.259   0.574   1.809  1.00  0.00     0.174 C 
BRANCH  10  11
ATOM     11  N   ILE A   2       6.452  -0.253   2.038  1.00  0.00    -0.343 N 
ATOM     12  C   SER A   1       7.184  -0.951   1.014  1.00  0.00     0.239 C 
ATOM     13  O   SER A   1       6.839  -0.860  -0.195  1.00  0.00    -0.273 OA
ATOM     14  H   UNL     1       6.776  -0.363   3.026  1.00  0.00     0.164 HD
BRANCH  12  15
ATOM     15  CA  SER A   1       8.335  -1.842   1.407  1.00  0.00     0.167 C 
BRANCH  15  16
ATOM     16  N   SER A   1       7.804  -3.086   1.968  1.00  0.00    -0.318 NA
ATOM     17  H   UNL     1       8.590  -3.632   2.394  1.00  0.00     0.119 HD
ATOM     18  H   UNL     1       7.385  -3.666   1.201  1.00  0.00     0.119 HD
ENDBRANCH  15  16
BRANCH  15  19
ATOM     19  CB  SER A   1       9.288  -2.115   0.223  1.00  0.00     0.184 C 
BRANCH  19  20
ATOM     20  OG  SER A   1      10.437  -2.794   0.658  1.00  0.00    -0.394 OA
ATOM     21  H   UNL     1      10.234  -3.765   0.611  1.00  0.00     0.210 HD
ENDBRANCH  19  20
ENDBRANCH  15  19
ENDBRANCH  12  15
ENDBRANCH  10  11
BRANCH  10  22
ATOM     22  CB  ILE A   2       5.530   1.769   0.844  1.00  0.00     0.018 C 
ATOM     23  CG1 ILE A   2       4.284   2.675   0.750  1.00  0.00     0.010 C 
BRANCH  22  24
ATOM     24  CG2 ILE A   2       6.763   2.584   1.313  1.00  0.00     0.002 C 
ATOM     25  CD1 ILE A   2       7.202   3.648   0.307  1.00  0.00     0.004 C 
ENDBRANCH  22  24
ENDBRANCH  10  22
ENDBRANCH   7  10
ENDBRANCH   5   6
BRANCH   5  26
ATOM     26  CB  SER A   3       0.985  -1.742   3.029  1.00  0.00     0.191 C 
BRANCH  26  27
ATOM     27  OG  SER A   3       1.687  -2.385   4.058  1.00  0.00    -0.394 OA
ATOM     28  H   UNL     1       1.760  -3.340   3.799  1.00  0.00     0.210 HD
ENDBRANCH  26  27
ENDBRANCH   5  26
ENDBRANCH   1   5
BRANCH   3  29
ATOM     29  CA  LEU A   4      -0.242  -1.138  -1.405  1.00  0.00     0.171 C 
BRANCH  29  30
ATOM     30  C   LEU A   4      -1.573  -0.806  -0.780  1.00  0.00     0.243 C 
ATOM     31  N   ARG A   5      -2.108   0.522  -0.879  1.00  0.00    -0.343 N 
ATOM     32  O   LEU A   4      -2.214  -1.708  -0.174  1.00  0.00    -0.273 OA
ATOM     33  H   UNL     1      -1.557   1.246  -1.396  1.00  0.00     0.164 HD
BRANCH  31  34
ATOM     34  CA  ARG A   5      -3.474   0.842  -0.462  1.00  0.00     0.171 C 
BRANCH  34  35
ATOM     35  C   ARG A   5      -4.424   0.490  -1.576  1.00  0.00     0.243 C 
ATOM     36  N   ASN A   6      -5.488  -0.447  -1.353  1.00  0.00    -0.341 N 
ATOM     37  O   ARG A   5      -4.272   1.017  -2.713  1.00  0.00    -0.273 OA
ATOM     38  H   UNL     1      -5.533  -0.930  -0.428  1.00  0.00     0.164 HD
BRANCH  36  39
ATOM     39  CA  ASN A   6      -6.455  -0.789  -2.402  1.00  0.00     0.201 C 
BRANCH  39  40
ATOM     40  C   ASN A   6      -7.314   0.400  -2.742  1.00  0.00     0.326 C 
ATOM     41  O   ASN A   6      -7.704   1.186  -1.836  1.00  0.00    -0.250 OA
BRANCH  40  42
ATOM     42  OXT ASN A   6      -7.702   0.616  -4.060  1.00  0.00    -0.480 OA
ATOM     43  H   UNL     1      -8.293   1.400  -4.305  1.00  0.00     0.296 HD
ENDBRANCH  40  42
ENDBRANCH  39  40
BRANCH  39  44
ATOM     44  CB  ASN A   6      -7.312  -2.010  -2.009  1.00  0.00     0.136 C 
BRANCH  44  45
ATOM     45  CG  ASN A   6      -8.172  -1.774  -0.796  1.00  0.00     0.220 C 
ATOM     46  ND2 ASN A   6      -9.475  -1.206  -0.932  1.00  0.00    -0.370 N 
ATOM     47  OD1 ASN A   6      -7.740  -2.075   0.349  1.00  0.00    -0.275 OA
ATOM     48  H   UNL     1     -10.076  -1.056  -0.090  1.00  0.00     0.159 HD
ATOM     49  H   UNL     1      -9.842  -0.931  -1.871  1.00  0.00     0.159 HD
ENDBRANCH  44  45
ENDBRANCH  39  44
ENDBRANCH  36  39
ENDBRANCH  34  35
BRANCH  34  50
ATOM     50  CB  ARG A   5      -3.572   2.335  -0.088  1.00  0.00     0.037 C 
BRANCH  50  51
ATOM     51  CG  ARG A   5      -4.957   2.774   0.427  1.00  0.00     0.024 C 
BRANCH  51  52
ATOM     52  CD  ARG A   5      -5.425   2.034   1.691  1.00  0.00     0.116 C 
BRANCH  52  53
ATOM     53  NE  ARG A   5      -4.407   2.064   2.743  1.00  0.00    -0.357 N 
ATOM     54  CZ  ARG A   5      -4.092   3.243   3.496  1.00  0.00     0.185 C 
ATOM     55  NH2 ARG A   5      -3.041   3.200   4.463  1.00  0.00    -0.370 N 
ATOM     56  H   UNL     1      -3.910   1.175   2.975  1.00  0.00     0.163 HD
ATOM     57  H   UNL     1      -2.501   2.322   4.621  1.00  0.00     0.159 HD
ATOM     58  H   UNL     1      -2.791   4.045   5.024  1.00  0.00     0.159 HD
BRANCH  54  59
ATOM     59  NH1 ARG A   5      -4.764   4.337   3.316  1.00  0.00    -0.270 NA
ATOM     60  H   UNL     1      -4.556   5.205   3.856  1.00  0.00     0.191 HD
ENDBRANCH  54  59
ENDBRANCH  52  53
ENDBRANCH  51  52
ENDBRANCH  50  51
ENDBRANCH  34  50
ENDBRANCH  31  34
ENDBRANCH  29  30
BRANCH  29  61
ATOM     61  CB  LEU A   4      -0.408  -2.171  -2.542  1.00  0.00     0.038 C 
BRANCH  61  62
ATOM     62  CG  LEU A   4      -1.372  -1.733  -3.675  1.00  0.00    -0.015 C 
ATOM     63  CD1 LEU A   4      -0.862  -0.492  -4.425  1.00  0.00     0.007 C 
ATOM     64  CD2 LEU A   4      -1.575  -2.890  -4.659  1.00  0.00     0.007 C 
ENDBRANCH  61  62
ENDBRANCH  29  61
ENDBRANCH   3  29
TORSDOF 28
