REMARK SMILES CC(C)C[C@H](NC(=O)[C@H](CCCCN)NC(=O)[C@@H](NC(=O)[C@@H](N)CO)C(C)C)C(=O)N[C@@H](CCCNC(=N)N)C(=O)N[C@@H](CC(N)=O)C(=O)O
REMARK SMILES IDX 7 1 8 2 6 3 9 5 15 6 16 7 17 8 18 10 19 11 20 12 21 13 22 15
REMARK SMILES IDX 23 16 24 19 25 20 26 22 27 23 28 24 10 25 11 26 12 27 13 28
REMARK SMILES IDX 14 29 5 32 29 33 31 34 30 35 32 37 40 38 42 39 41 40 43 42
REMARK SMILES IDX 48 43 49 44 50 45 44 47 45 48 46 49 47 50 33 53 34 54 35 55
REMARK SMILES IDX 36 56 37 57 39 58 38 62 4 64 2 65 1 66 3 67
REMARK H PARENT 6 4 15 9 19 14 23 17 23 18 25 21 14 30 14 31 31 36 42 41 50 46
REMARK H PARENT 46 51 46 52 36 59 39 60 39 61 38 63
ROOT
ATOM      1  C   LYS A   3      20.030  10.081  -6.470  1.00  0.00     0.243 C 
ATOM      2  O   LYS A   3      20.144   9.158  -5.617  1.00  0.00    -0.273 OA
ATOM      3  N   LEU A   4      20.563   9.924  -7.774  1.00  0.00    -0.343 N 
ATOM      4  H   UNL     1      20.405  10.668  -8.492  1.00  0.00     0.164 HD
ENDROOT
BRANCH   1   5
ATOM      5  CA  LYS A   3      19.325  11.354  -6.134  1.00  0.00     0.171 C 
BRANCH   5   6
ATOM      6  N   LYS A   3      18.079  11.046  -5.479  1.00  0.00    -0.343 N 
ATOM      7  C   VAL A   2      16.874  11.750  -5.740  1.00  0.00     0.243 C 
ATOM      8  O   VAL A   2      16.887  12.790  -6.457  1.00  0.00    -0.273 OA
ATOM      9  H   UNL     1      18.155  10.490  -4.602  1.00  0.00     0.164 HD
BRANCH   7  10
ATOM     10  CA  VAL A   2      15.620  11.278  -5.056  1.00  0.00     0.173 C 
BRANCH  10  11
ATOM     11  N   VAL A   2      14.435  11.732  -5.769  1.00  0.00    -0.343 N 
ATOM     12  C   SER A   1      13.913  13.049  -5.638  1.00  0.00     0.239 C 
ATOM     13  O   SER A   1      14.448  13.864  -4.838  1.00  0.00    -0.273 OA
ATOM     14  H   UNL     1      13.822  11.016  -6.206  1.00  0.00     0.164 HD
BRANCH  12  15
ATOM     15  CA  SER A   1      12.661  13.416  -6.392  1.00  0.00     0.167 C 
BRANCH  15  16
ATOM     16  N   SER A   1      12.477  14.868  -6.373  1.00  0.00    -0.318 NA
ATOM     17  H   UNL     1      13.181  15.321  -7.001  1.00  0.00     0.119 HD
ATOM     18  H   UNL     1      11.526  15.098  -6.741  1.00  0.00     0.119 HD
ENDBRANCH  15  16
BRANCH  15  19
ATOM     19  CB  SER A   1      12.689  12.888  -7.849  1.00  0.00     0.184 C 
BRANCH  19  20
ATOM     20  OG  SER A   1      11.434  13.047  -8.450  1.00  0.00    -0.394 OA
ATOM     21  H   UNL     1      11.433  13.939  -8.886  1.00  0.00     0.210 HD
ENDBRANCH  19  20
ENDBRANCH  15  19
ENDBRANCH  12  15
ENDBRANCH  10  11
BRANCH  10  22
ATOM     22  CB  VAL A   2      15.593   9.723  -4.902  1.00  0.00     0.015 C 
ATOM     23  CG1 VAL A   2      14.395   9.261  -4.077  1.00  0.00     0.010 C 
ATOM     24  CG2 VAL A   2      15.662   8.956  -6.238  1.00  0.00     0.010 C 
ENDBRANCH  10  22
ENDBRANCH   7  10
ENDBRANCH   5   6
BRANCH   5  25
ATOM     25  CB  LYS A   3      20.181  12.251  -5.237  1.00  0.00     0.035 C 
BRANCH  25  26
ATOM     26  CG  LYS A   3      20.432  11.696  -3.814  1.00  0.00     0.004 C 
BRANCH  26  27
ATOM     27  CD  LYS A   3      21.814  12.100  -3.294  1.00  0.00     0.015 C 
BRANCH  27  28
ATOM     28  CE  LYS A   3      21.904  13.606  -3.016  1.00  0.00     0.077 C 
BRANCH  28  29
ATOM     29  NZ  LYS A   3      23.232  13.946  -2.518  1.00  0.00    -0.330 NA
ATOM     30  H   UNL     1      23.899  13.894  -3.322  1.00  0.00     0.118 HD
ATOM     31  H   UNL     1      23.212  14.947  -2.217  1.00  0.00     0.118 HD
ENDBRANCH  28  29
ENDBRANCH  27  28
ENDBRANCH  26  27
ENDBRANCH  25  26
ENDBRANCH   5  25
ENDBRANCH   1   5
BRANCH   3  32
ATOM     32  CA  LEU A   4      21.348   8.762  -8.141  1.00  0.00     0.171 C 
BRANCH  32  33
ATOM     33  C   LEU A   4      22.713   9.217  -8.522  1.00  0.00     0.243 C 
ATOM     34  N   ARG A   5      23.822   8.721  -7.786  1.00  0.00    -0.343 N 
ATOM     35  O   LEU A   4      22.878  10.033  -9.469  1.00  0.00    -0.273 OA
ATOM     36  H   UNL     1      23.666   8.031  -7.015  1.00  0.00     0.164 HD
BRANCH  34  37
ATOM     37  CA  ARG A   5      25.185   9.122  -8.072  1.00  0.00     0.171 C 
BRANCH  37  38
ATOM     38  C   ARG A   5      25.900   7.968  -8.685  1.00  0.00     0.243 C 
ATOM     39  N   ASN A   6      25.913   7.864 -10.102  1.00  0.00    -0.341 N 
ATOM     40  O   ARG A   5      26.447   7.087  -7.969  1.00  0.00    -0.273 OA
ATOM     41  H   UNL     1      25.488   8.647 -10.651  1.00  0.00     0.164 HD
BRANCH  39  42
ATOM     42  CA  ASN A   6      26.542   6.751 -10.804  1.00  0.00     0.201 C 
BRANCH  42  43
ATOM     43  C   ASN A   6      27.993   6.642 -10.416  1.00  0.00     0.326 C 
ATOM     44  O   ASN A   6      28.794   7.579 -10.677  1.00  0.00    -0.250 OA
BRANCH  43  45
ATOM     45  OXT ASN A   6      28.451   5.499  -9.768  1.00  0.00    -0.480 OA
ATOM     46  H   UNL     1      29.424   5.409  -9.499  1.00  0.00     0.296 HD
ENDBRANCH  43  45
ENDBRANCH  42  43
BRANCH  42  47
ATOM     47  CB  ASN A   6      26.424   6.947 -12.323  1.00  0.00     0.136 C 
BRANCH  47  48
ATOM     48  CG  ASN A   6      25.010   7.181 -12.773  1.00  0.00     0.220 C 
ATOM     49  ND2 ASN A   6      24.753   8.090 -13.833  1.00  0.00    -0.370 N 
ATOM     50  OD1 ASN A   6      24.053   6.558 -12.243  1.00  0.00    -0.275 OA
ATOM     51  H   UNL     1      25.533   8.600 -14.306  1.00  0.00     0.159 HD
ATOM     52  H   UNL     1      23.775   8.258 -14.156  1.00  0.00     0.159 HD
ENDBRANCH  47  48
ENDBRANCH  42  47
ENDBRANCH  39  42
ENDBRANCH  37  38
BRANCH  37  53
ATOM     53  CB  ARG A   5      25.862   9.605  -6.795  1.00  0.00     0.037 C 
BRANCH  53  54
ATOM     54  CG  ARG A   5      25.165  10.860  -6.269  1.00  0.00     0.024 C 
BRANCH  54  55
ATOM     55  CD  ARG A   5      25.839  11.392  -5.013  1.00  0.00     0.116 C 
BRANCH  55  56
ATOM     56  NE  ARG A   5      25.376  10.687  -3.820  1.00  0.00    -0.357 N 
ATOM     57  CZ  ARG A   5      25.472  11.280  -2.525  1.00  0.00     0.185 C 
ATOM     58  NH2 ARG A   5      26.119  12.540  -2.349  1.00  0.00    -0.370 N 
ATOM     59  H   UNL     1      24.886   9.767  -3.912  1.00  0.00     0.163 HD
ATOM     60  H   UNL     1      26.705  12.976  -3.092  1.00  0.00     0.159 HD
ATOM     61  H   UNL     1      26.095  13.016  -1.420  1.00  0.00     0.159 HD
BRANCH  57  62
ATOM     62  NH1 ARG A   5      24.953  10.672  -1.506  1.00  0.00    -0.270 NA
ATOM     63  H   UNL     1      24.997  11.076  -0.544  1.00  0.00     0.191 HD
ENDBRANCH  57  62
ENDBRANCH  55  56
ENDBRANCH  54  55
ENDBRANCH  53  54
ENDBRANCH  37  53
ENDBRANCH  34  37
ENDBRANCH  32  33
BRANCH  32  64
ATOM     64  CB  LEU A   4      20.655   8.000  -9.273  1.00  0.00     0.038 C 
BRANCH  64  65
ATOM     65  CG  LEU A   4      21.448   6.771  -9.769  1.00  0.00    -0.015 C 
ATOM     66  CD1 LEU A   4      21.762   5.779  -8.639  1.00  0.00     0.007 C 
ATOM     67  CD2 LEU A   4      20.661   6.067 -10.877  1.00  0.00     0.007 C 
ENDBRANCH  64  65
ENDBRANCH  32  64
ENDBRANCH   3  32
TORSDOF 30
