REMARK SMILES CC(C)C[C@H](NC(=O)[C@H](CCC(=O)O)NC(=O)[C@@H](N)CO)C(=O)NCC(=O)N[C@@H](CCCNC(=N)N)C(=O)N[C@@H](CC(N)=O)C(=O)O
REMARK SMILES IDX 22 1 23 2 24 3 5 5 6 6 7 7 8 8 9 10 15 11 16 12 17 13 18 15
REMARK SMILES IDX 19 16 20 19 21 20 10 22 11 23 12 24 13 25 14 26 4 28 2 29
REMARK SMILES IDX 1 30 3 31 25 32 26 33 28 34 27 35 29 37 37 38 39 39 38 40
REMARK SMILES IDX 40 42 45 43 46 44 47 45 41 47 42 48 43 49 44 50 30 53 31 54
REMARK SMILES IDX 32 55 33 56 34 57 36 58 35 62
REMARK H PARENT 24 4 6 9 15 14 19 17 19 18 21 21 14 27 28 36 39 41 47 46 43 51
REMARK H PARENT 43 52 33 59 36 60 36 61 35 63
ROOT
ATOM      1  C   LEU A   3      20.052  10.076  -6.480  1.00  0.00     0.243 C 
ATOM      2  O   LEU A   3      20.177   9.150  -5.632  1.00  0.00    -0.273 OA
ATOM      3  N   GLY A   4      20.560   9.917  -7.794  1.00  0.00    -0.345 N 
ATOM      4  H   UNL     1      20.398  10.669  -8.503  1.00  0.00     0.164 HD
ENDROOT
BRANCH   1   5
ATOM      5  CA  LEU A   3      19.332  11.344  -6.139  1.00  0.00     0.171 C 
BRANCH   5   6
ATOM      6  N   LEU A   3      18.076  11.009  -5.519  1.00  0.00    -0.343 N 
ATOM      7  C   GLU A   2      16.877  11.737  -5.743  1.00  0.00     0.243 C 
ATOM      8  O   GLU A   2      16.894  12.786  -6.447  1.00  0.00    -0.273 OA
ATOM      9  H   UNL     1      18.150  10.373  -4.701  1.00  0.00     0.164 HD
BRANCH   7  10
ATOM     10  CA  GLU A   2      15.624  11.283  -5.042  1.00  0.00     0.172 C 
BRANCH  10  11
ATOM     11  N   GLU A   2      14.448  11.733  -5.771  1.00  0.00    -0.343 N 
ATOM     12  C   SER A   1      13.914  13.046  -5.637  1.00  0.00     0.239 C 
ATOM     13  O   SER A   1      14.450  13.862  -4.837  1.00  0.00    -0.273 OA
ATOM     14  H   UNL     1      13.892  11.013  -6.278  1.00  0.00     0.164 HD
BRANCH  12  15
ATOM     15  CA  SER A   1      12.656  13.410  -6.386  1.00  0.00     0.167 C 
BRANCH  15  16
ATOM     16  N   SER A   1      12.468  14.863  -6.378  1.00  0.00    -0.318 NA
ATOM     17  H   UNL     1      11.582  15.090  -6.885  1.00  0.00     0.119 HD
ATOM     18  H   UNL     1      12.305  15.170  -5.391  1.00  0.00     0.119 HD
ENDBRANCH  15  16
BRANCH  15  19
ATOM     19  CB  SER A   1      12.693  12.902  -7.848  1.00  0.00     0.184 C 
BRANCH  19  20
ATOM     20  OG  SER A   1      11.436  13.043  -8.450  1.00  0.00    -0.394 OA
ATOM     21  H   UNL     1      10.855  12.334  -8.067  1.00  0.00     0.210 HD
ENDBRANCH  19  20
ENDBRANCH  15  19
ENDBRANCH  12  15
ENDBRANCH  10  11
BRANCH  10  22
ATOM     22  CB  GLU A   2      15.572   9.737  -4.917  1.00  0.00     0.047 C 
BRANCH  22  23
ATOM     23  CG  GLU A   2      14.391   9.270  -4.070  1.00  0.00     0.125 C 
BRANCH  23  24
ATOM     24  CD  GLU A   2      14.363   7.776  -3.979  1.00  0.00     0.303 C 
ATOM     25  OE1 GLU A   2      14.945   7.190  -3.027  1.00  0.00    -0.252 OA
BRANCH  24  26
ATOM     26  OE2 GLU A   2      13.730   7.034  -4.971  1.00  0.00    -0.481 OA
ATOM     27  H   UNL     1      13.716   6.022  -4.932  1.00  0.00     0.296 HD
ENDBRANCH  24  26
ENDBRANCH  23  24
ENDBRANCH  22  23
ENDBRANCH  10  22
ENDBRANCH   7  10
ENDBRANCH   5   6
BRANCH   5  28
ATOM     28  CB  LEU A   3      20.160  12.247  -5.216  1.00  0.00     0.038 C 
BRANCH  28  29
ATOM     29  CG  LEU A   3      20.416  11.677  -3.791  1.00  0.00    -0.015 C 
ATOM     30  CD1 LEU A   3      21.819  12.065  -3.319  1.00  0.00     0.007 C 
ATOM     31  CD2 LEU A   3      19.370  12.169  -2.779  1.00  0.00     0.007 C 
ENDBRANCH  28  29
ENDBRANCH   5  28
ENDBRANCH   1   5
BRANCH   3  32
ATOM     32  CA  GLY A   4      21.332   8.760  -8.201  1.00  0.00     0.216 C 
BRANCH  32  33
ATOM     33  C   GLY A   4      22.706   9.206  -8.539  1.00  0.00     0.240 C 
ATOM     34  N   ARG A   5      23.806   8.709  -7.788  1.00  0.00    -0.343 N 
ATOM     35  O   GLY A   4      22.885  10.031  -9.475  1.00  0.00    -0.273 OA
ATOM     36  H   UNL     1      23.639   7.993  -7.045  1.00  0.00     0.164 HD
BRANCH  34  37
ATOM     37  CA  ARG A   5      25.174   9.114  -8.068  1.00  0.00     0.171 C 
BRANCH  37  38
ATOM     38  C   ARG A   5      25.896   7.965  -8.684  1.00  0.00     0.243 C 
ATOM     39  N   ASN A   6      25.915   7.866 -10.101  1.00  0.00    -0.341 N 
ATOM     40  O   ARG A   5      26.447   7.086  -7.969  1.00  0.00    -0.273 OA
ATOM     41  H   UNL     1      25.495   8.652 -10.649  1.00  0.00     0.164 HD
BRANCH  39  42
ATOM     42  CA  ASN A   6      26.543   6.751 -10.803  1.00  0.00     0.201 C 
BRANCH  42  43
ATOM     43  C   ASN A   6      27.993   6.642 -10.416  1.00  0.00     0.326 C 
ATOM     44  O   ASN A   6      28.795   7.579 -10.677  1.00  0.00    -0.250 OA
BRANCH  43  45
ATOM     45  OXT ASN A   6      28.452   5.499  -9.769  1.00  0.00    -0.480 OA
ATOM     46  H   UNL     1      29.425   5.409  -9.501  1.00  0.00     0.296 HD
ENDBRANCH  43  45
ENDBRANCH  42  43
BRANCH  42  47
ATOM     47  CB  ASN A   6      26.424   6.947 -12.323  1.00  0.00     0.136 C 
BRANCH  47  48
ATOM     48  CG  ASN A   6      25.010   7.182 -12.772  1.00  0.00     0.220 C 
ATOM     49  ND2 ASN A   6      24.754   8.089 -13.834  1.00  0.00    -0.370 N 
ATOM     50  OD1 ASN A   6      24.051   6.563 -12.238  1.00  0.00    -0.275 OA
ATOM     51  H   UNL     1      23.775   8.257 -14.157  1.00  0.00     0.159 HD
ATOM     52  H   UNL     1      25.534   8.596 -14.309  1.00  0.00     0.159 HD
ENDBRANCH  47  48
ENDBRANCH  42  47
ENDBRANCH  39  42
ENDBRANCH  37  38
BRANCH  37  53
ATOM     53  CB  ARG A   5      25.851   9.597  -6.790  1.00  0.00     0.037 C 
BRANCH  53  54
ATOM     54  CG  ARG A   5      25.163  10.859  -6.271  1.00  0.00     0.024 C 
BRANCH  54  55
ATOM     55  CD  ARG A   5      25.838  11.390  -5.015  1.00  0.00     0.116 C 
BRANCH  55  56
ATOM     56  NE  ARG A   5      25.377  10.684  -3.823  1.00  0.00    -0.357 N 
ATOM     57  CZ  ARG A   5      25.468  11.279  -2.527  1.00  0.00     0.185 C 
ATOM     58  NH2 ARG A   5      26.105  12.541  -2.350  1.00  0.00    -0.370 N 
ATOM     59  H   UNL     1      24.897   9.760  -3.921  1.00  0.00     0.163 HD
ATOM     60  H   UNL     1      26.081  13.008  -1.416  1.00  0.00     0.159 HD
ATOM     61  H   UNL     1      26.692  12.982  -3.091  1.00  0.00     0.159 HD
BRANCH  57  62
ATOM     62  NH1 ARG A   5      24.957  10.680  -1.500  1.00  0.00    -0.270 NA
ATOM     63  H   UNL     1      24.474   9.757  -1.584  1.00  0.00     0.191 HD
ENDBRANCH  57  62
ENDBRANCH  55  56
ENDBRANCH  54  55
ENDBRANCH  53  54
ENDBRANCH  37  53
ENDBRANCH  34  37
ENDBRANCH  32  33
ENDBRANCH   3  32
TORSDOF 28
