REMARK SMILES CC(C)C[C@H](NC(=O)[C@H](Cc1c[nH]cn1)NC(=O)[C@H](Cc1ccccc1)NC(=O)[C@@H](N)CO)C(=O)N[C@@H](CCCNC(=N)N)C(=O)N[C@@H](CCCCN)C(=O)O
REMARK SMILES IDX 34 1 35 2 36 3 5 5 6 6 7 7 8 8 9 10 16 11 17 12 18 13 19 15
REMARK SMILES IDX 27 16 28 17 29 18 30 20 31 21 32 24 33 25 20 27 21 28 22 29
REMARK SMILES IDX 26 30 23 31 25 32 24 33 10 34 11 35 15 36 12 37 14 38 13 39
REMARK SMILES IDX 4 41 2 42 1 43 3 44 37 45 45 46 47 47 46 48 48 50 54 51
REMARK SMILES IDX 55 52 56 53 49 55 50 56 51 57 52 58 53 59 38 62 39 63 40 64
REMARK SMILES IDX 41 65 42 66 44 67 43 71
REMARK H PARENT 36 4 6 9 16 14 27 19 31 22 31 23 33 26 13 40 47 49 56 54 53 60
REMARK H PARENT 53 61 41 68 44 69 44 70 43 72
ROOT
ATOM      1  C   LEU A   4      22.713   9.215  -8.519  1.00  0.00     0.243 C 
ATOM      2  O   LEU A   4      22.878  10.031  -9.467  1.00  0.00    -0.273 OA
ATOM      3  N   ARG A   5      23.821   8.720  -7.782  1.00  0.00    -0.343 N 
ATOM      4  H   UNL     1      23.665   8.030  -7.012  1.00  0.00     0.164 HD
ENDROOT
BRANCH   1   5
ATOM      5  CA  LEU A   4      21.347   8.759  -8.139  1.00  0.00     0.171 C 
BRANCH   5   6
ATOM      6  N   LEU A   4      20.563   9.921  -7.772  1.00  0.00    -0.342 N 
ATOM      7  C   HIS A   3      20.051  10.095  -6.459  1.00  0.00     0.243 C 
ATOM      8  O   HIS A   3      20.169   9.182  -5.595  1.00  0.00    -0.273 OA
ATOM      9  H   UNL     1      20.395  10.659  -8.494  1.00  0.00     0.164 HD
BRANCH   7  10
ATOM     10  CA  HIS A   3      19.346  11.367  -6.131  1.00  0.00     0.177 C 
BRANCH  10  11
ATOM     11  N   HIS A   3      18.089  11.044  -5.508  1.00  0.00    -0.342 N 
ATOM     12  C   PHE A   2      16.887  11.749  -5.774  1.00  0.00     0.243 C 
ATOM     13  O   PHE A   2      16.902  12.793  -6.483  1.00  0.00    -0.273 OA
ATOM     14  H   UNL     1      18.164  10.485  -4.633  1.00  0.00     0.164 HD
BRANCH  12  15
ATOM     15  CA  PHE A   2      15.651  11.313  -5.059  1.00  0.00     0.175 C 
BRANCH  15  16
ATOM     16  N   PHE A   2      14.453  11.739  -5.769  1.00  0.00    -0.343 N 
ATOM     17  C   SER A   1      13.914  13.049  -5.637  1.00  0.00     0.239 C 
ATOM     18  O   SER A   1      14.447  13.869  -4.839  1.00  0.00    -0.273 OA
ATOM     19  H   UNL     1      13.862  10.999  -6.207  1.00  0.00     0.164 HD
BRANCH  17  20
ATOM     20  CA  SER A   1      12.655  13.409  -6.387  1.00  0.00     0.167 C 
BRANCH  20  21
ATOM     21  N   SER A   1      12.467  14.862  -6.384  1.00  0.00    -0.318 NA
ATOM     22  H   UNL     1      11.582  15.088  -6.894  1.00  0.00     0.119 HD
ATOM     23  H   UNL     1      12.301  15.172  -5.399  1.00  0.00     0.119 HD
ENDBRANCH  20  21
BRANCH  20  24
ATOM     24  CB  SER A   1      12.698  12.894  -7.844  1.00  0.00     0.184 C 
BRANCH  24  25
ATOM     25  OG  SER A   1      11.440  13.041  -8.440  1.00  0.00    -0.394 OA
ATOM     26  H   UNL     1      11.550  12.779  -9.392  1.00  0.00     0.210 HD
ENDBRANCH  24  25
ENDBRANCH  20  24
ENDBRANCH  17  20
ENDBRANCH  15  16
BRANCH  15  27
ATOM     27  CB  PHE A   2      15.613   9.774  -4.889  1.00  0.00     0.070 C 
BRANCH  27  28
ATOM     28  CG  PHE A   2      14.443   9.290  -4.090  1.00  0.00    -0.045 A 
ATOM     29  CD1 PHE A   2      13.903  10.047  -3.033  1.00  0.00     0.004 A 
ATOM     30  CD2 PHE A   2      13.968   7.990  -4.310  1.00  0.00     0.004 A 
ATOM     31  CE1 PHE A   2      12.868   9.536  -2.260  1.00  0.00     0.000 A 
ATOM     32  CE2 PHE A   2      12.939   7.477  -3.521  1.00  0.00     0.000 A 
ATOM     33  CZ  PHE A   2      12.386   8.252  -2.502  1.00  0.00     0.000 A 
ENDBRANCH  27  28
ENDBRANCH  15  27
ENDBRANCH  12  15
ENDBRANCH  10  11
BRANCH  10  34
ATOM     34  CB  HIS A   3      20.176  12.265  -5.202  1.00  0.00     0.093 C 
BRANCH  34  35
ATOM     35  CG  HIS A   3      20.426  11.673  -3.838  1.00  0.00     0.061 A 
ATOM     36  ND1 HIS A   3      19.584  11.800  -2.792  1.00  0.00    -0.242 NA
ATOM     37  CD2 HIS A   3      21.525  10.931  -3.467  1.00  0.00     0.107 A 
ATOM     38  CE1 HIS A   3      20.198  11.121  -1.799  1.00  0.00     0.196 A 
ATOM     39  NE2 HIS A   3      21.373  10.585  -2.181  1.00  0.00    -0.351 N 
ATOM     40  H   UNL     1      22.027  10.019  -1.598  1.00  0.00     0.167 HD
ENDBRANCH  34  35
ENDBRANCH  10  34
ENDBRANCH   7  10
ENDBRANCH   5   6
BRANCH   5  41
ATOM     41  CB  LEU A   4      20.657   8.000  -9.274  1.00  0.00     0.038 C 
BRANCH  41  42
ATOM     42  CG  LEU A   4      21.451   6.772  -9.772  1.00  0.00    -0.015 C 
ATOM     43  CD1 LEU A   4      21.764   5.779  -8.642  1.00  0.00     0.007 C 
ATOM     44  CD2 LEU A   4      20.663   6.068 -10.880  1.00  0.00     0.007 C 
ENDBRANCH  41  42
ENDBRANCH   5  41
ENDBRANCH   1   5
BRANCH   3  45
ATOM     45  CA  ARG A   5      25.185   9.121  -8.069  1.00  0.00     0.171 C 
BRANCH  45  46
ATOM     46  C   ARG A   5      25.899   7.968  -8.683  1.00  0.00     0.243 C 
ATOM     47  N   LYS A   6      25.929   7.883 -10.100  1.00  0.00    -0.341 N 
ATOM     48  O   ARG A   5      26.440   7.080  -7.971  1.00  0.00    -0.273 OA
ATOM     49  H   UNL     1      25.623   8.728 -10.632  1.00  0.00     0.164 HD
BRANCH  47  50
ATOM     50  CA  LYS A   6      26.538   6.768 -10.816  1.00  0.00     0.192 C 
BRANCH  50  51
ATOM     51  C   LYS A   6      27.988   6.642 -10.429  1.00  0.00     0.326 C 
ATOM     52  O   LYS A   6      28.796   7.576 -10.679  1.00  0.00    -0.250 OA
BRANCH  51  53
ATOM     53  OXT LYS A   6      28.437   5.487  -9.797  1.00  0.00    -0.480 OA
ATOM     54  H   UNL     1      29.409   5.386  -9.530  1.00  0.00     0.296 HD
ENDBRANCH  51  53
ENDBRANCH  50  51
BRANCH  50  55
ATOM     55  CB  LYS A   6      26.417   6.989 -12.335  1.00  0.00     0.037 C 
BRANCH  55  56
ATOM     56  CG  LYS A   6      24.955   7.124 -12.794  1.00  0.00     0.004 C 
BRANCH  56  57
ATOM     57  CD  LYS A   6      24.856   7.191 -14.324  1.00  0.00     0.015 C 
BRANCH  57  58
ATOM     58  CE  LYS A   6      23.402   7.128 -14.823  1.00  0.00     0.077 C 
BRANCH  58  59
ATOM     59  NZ  LYS A   6      22.616   8.294 -14.418  1.00  0.00    -0.330 NA
ATOM     60  H   UNL     1      22.425   8.241 -13.391  1.00  0.00     0.118 HD
ATOM     61  H   UNL     1      23.162   9.166 -14.606  1.00  0.00     0.118 HD
ENDBRANCH  58  59
ENDBRANCH  57  58
ENDBRANCH  56  57
ENDBRANCH  55  56
ENDBRANCH  50  55
ENDBRANCH  47  50
ENDBRANCH  45  46
BRANCH  45  62
ATOM     62  CB  ARG A   5      25.862   9.603  -6.792  1.00  0.00     0.037 C 
BRANCH  62  63
ATOM     63  CG  ARG A   5      25.166  10.859  -6.269  1.00  0.00     0.024 C 
BRANCH  63  64
ATOM     64  CD  ARG A   5      25.840  11.391  -5.012  1.00  0.00     0.116 C 
BRANCH  64  65
ATOM     65  NE  ARG A   5      25.378  10.686  -3.819  1.00  0.00    -0.357 N 
ATOM     66  CZ  ARG A   5      25.468  11.281  -2.526  1.00  0.00     0.185 C 
ATOM     67  NH2 ARG A   5      26.107  12.546  -2.351  1.00  0.00    -0.370 N 
ATOM     68  H   UNL     1      24.901   9.760  -3.911  1.00  0.00     0.163 HD
ATOM     69  H   UNL     1      26.080  13.023  -1.422  1.00  0.00     0.159 HD
ATOM     70  H   UNL     1      26.698  12.981  -3.092  1.00  0.00     0.159 HD
BRANCH  66  71
ATOM     71  NH1 ARG A   5      24.955  10.671  -1.506  1.00  0.00    -0.270 NA
ATOM     72  H   UNL     1      24.995  11.075  -0.544  1.00  0.00     0.191 HD
ENDBRANCH  66  71
ENDBRANCH  64  65
ENDBRANCH  63  64
ENDBRANCH  62  63
ENDBRANCH  45  62
ENDBRANCH   3  45
TORSDOF 31
