REMARK SMILES CC(C)C[C@H](NC(=O)[C@H](CC(=O)O)NC(=O)[C@H](C)NC(=O)[C@@H](N)CO)C(=O)N[C@@H](CCCNC(=N)N)C(=O)N[C@@H](CC(N)=O)C(=O)O
REMARK SMILES IDX 7 1 8 2 6 3 9 5 14 6 15 7 16 8 17 10 18 11 19 12 20 13 21 14
REMARK SMILES IDX 22 16 23 17 24 20 25 21 10 23 11 24 12 25 13 26 5 28 26 29
REMARK SMILES IDX 28 30 27 31 29 33 37 34 39 35 38 36 40 38 45 39 46 40 47 41
REMARK SMILES IDX 41 43 42 44 43 45 44 46 30 49 31 50 32 51 33 52 34 53 36 54
REMARK SMILES IDX 35 58 4 60 2 61 1 62 3 63
REMARK H PARENT 6 4 14 9 19 15 23 18 23 19 25 22 13 27 28 32 39 37 47 42 43 47
REMARK H PARENT 43 48 33 55 36 56 36 57 35 59
ROOT
ATOM      1  C   ASP A   3      20.048  10.091  -6.455  1.00  0.00     0.243 C 
ATOM      2  O   ASP A   3      20.178   9.180  -5.591  1.00  0.00    -0.273 OA
ATOM      3  N   LEU A   4      20.562   9.923  -7.767  1.00  0.00    -0.342 N 
ATOM      4  H   UNL     1      20.392  10.662  -8.488  1.00  0.00     0.164 HD
ENDROOT
BRANCH   1   5
ATOM      5  CA  ASP A   3      19.328  11.354  -6.121  1.00  0.00     0.182 C 
BRANCH   5   6
ATOM      6  N   ASP A   3      18.065  11.015  -5.504  1.00  0.00    -0.342 N 
ATOM      7  C   ALA A   2      16.871  11.746  -5.737  1.00  0.00     0.242 C 
ATOM      8  O   ALA A   2      16.893  12.791  -6.446  1.00  0.00    -0.273 OA
ATOM      9  H   UNL     1      18.100  10.348  -4.702  1.00  0.00     0.164 HD
BRANCH   7  10
ATOM     10  CA  ALA A   2      15.617  11.294  -5.040  1.00  0.00     0.168 C 
ATOM     11  CB  ALA A   2      15.566   9.762  -4.904  1.00  0.00     0.041 C 
BRANCH  10  12
ATOM     12  N   ALA A   2      14.439  11.732  -5.767  1.00  0.00    -0.343 N 
ATOM     13  C   SER A   1      13.913  13.047  -5.636  1.00  0.00     0.239 C 
ATOM     14  O   SER A   1      14.449  13.863  -4.835  1.00  0.00    -0.273 OA
ATOM     15  H   UNL     1      13.850  11.001  -6.222  1.00  0.00     0.164 HD
BRANCH  13  16
ATOM     16  CA  SER A   1      12.659  13.414  -6.389  1.00  0.00     0.167 C 
BRANCH  16  17
ATOM     17  N   SER A   1      12.455  14.864  -6.398  1.00  0.00    -0.318 NA
ATOM     18  H   UNL     1      12.286  15.191  -5.419  1.00  0.00     0.119 HD
ATOM     19  H   UNL     1      13.317  15.339  -6.753  1.00  0.00     0.119 HD
ENDBRANCH  16  17
BRANCH  16  20
ATOM     20  CB  SER A   1      12.689  12.893  -7.844  1.00  0.00     0.184 C 
BRANCH  20  21
ATOM     21  OG  SER A   1      11.435  13.054  -8.447  1.00  0.00    -0.394 OA
ATOM     22  H   UNL     1      10.842  12.356  -8.065  1.00  0.00     0.210 HD
ENDBRANCH  20  21
ENDBRANCH  16  20
ENDBRANCH  13  16
ENDBRANCH  10  12
ENDBRANCH   7  10
ENDBRANCH   5   6
BRANCH   5  23
ATOM     23  CB  ASP A   3      20.152  12.257  -5.193  1.00  0.00     0.157 C 
BRANCH  23  24
ATOM     24  CG  ASP A   3      20.411  11.657  -3.837  1.00  0.00     0.305 C 
ATOM     25  OD1 ASP A   3      19.564  11.788  -2.914  1.00  0.00    -0.252 OA
BRANCH  24  26
ATOM     26  OD2 ASP A   3      21.586  10.947  -3.608  1.00  0.00    -0.481 OA
ATOM     27  H   UNL     1      21.777  10.534  -2.703  1.00  0.00     0.296 HD
ENDBRANCH  24  26
ENDBRANCH  23  24
ENDBRANCH   5  23
ENDBRANCH   1   5
BRANCH   3  28
ATOM     28  CA  LEU A   4      21.347   8.761  -8.137  1.00  0.00     0.171 C 
BRANCH  28  29
ATOM     29  C   LEU A   4      22.712   9.217  -8.519  1.00  0.00     0.243 C 
ATOM     30  N   ARG A   5      23.822   8.720  -7.785  1.00  0.00    -0.343 N 
ATOM     31  O   LEU A   4      22.876  10.033  -9.467  1.00  0.00    -0.273 OA
ATOM     32  H   UNL     1      23.667   8.030  -7.015  1.00  0.00     0.164 HD
BRANCH  30  33
ATOM     33  CA  ARG A   5      25.185   9.122  -8.073  1.00  0.00     0.171 C 
BRANCH  33  34
ATOM     34  C   ARG A   5      25.899   7.968  -8.685  1.00  0.00     0.243 C 
ATOM     35  N   ASN A   6      25.913   7.864 -10.102  1.00  0.00    -0.341 N 
ATOM     36  O   ARG A   5      26.447   7.087  -7.969  1.00  0.00    -0.273 OA
ATOM     37  H   UNL     1      25.489   8.647 -10.651  1.00  0.00     0.164 HD
BRANCH  35  38
ATOM     38  CA  ASN A   6      26.542   6.751 -10.804  1.00  0.00     0.201 C 
BRANCH  38  39
ATOM     39  C   ASN A   6      27.993   6.642 -10.416  1.00  0.00     0.326 C 
ATOM     40  O   ASN A   6      28.794   7.579 -10.677  1.00  0.00    -0.250 OA
BRANCH  39  41
ATOM     41  OXT ASN A   6      28.451   5.499  -9.768  1.00  0.00    -0.480 OA
ATOM     42  H   UNL     1      29.424   5.409  -9.499  1.00  0.00     0.296 HD
ENDBRANCH  39  41
ENDBRANCH  38  39
BRANCH  38  43
ATOM     43  CB  ASN A   6      26.424   6.946 -12.323  1.00  0.00     0.136 C 
BRANCH  43  44
ATOM     44  CG  ASN A   6      25.010   7.180 -12.773  1.00  0.00     0.220 C 
ATOM     45  ND2 ASN A   6      24.753   8.090 -13.833  1.00  0.00    -0.370 N 
ATOM     46  OD1 ASN A   6      24.053   6.558 -12.243  1.00  0.00    -0.275 OA
ATOM     47  H   UNL     1      25.533   8.600 -14.306  1.00  0.00     0.159 HD
ATOM     48  H   UNL     1      23.775   8.258 -14.156  1.00  0.00     0.159 HD
ENDBRANCH  43  44
ENDBRANCH  38  43
ENDBRANCH  35  38
ENDBRANCH  33  34
BRANCH  33  49
ATOM     49  CB  ARG A   5      25.863   9.605  -6.796  1.00  0.00     0.037 C 
BRANCH  49  50
ATOM     50  CG  ARG A   5      25.167  10.861  -6.272  1.00  0.00     0.024 C 
BRANCH  50  51
ATOM     51  CD  ARG A   5      25.841  11.391  -5.014  1.00  0.00     0.116 C 
BRANCH  51  52
ATOM     52  NE  ARG A   5      25.376  10.685  -3.823  1.00  0.00    -0.357 N 
ATOM     53  CZ  ARG A   5      25.467  11.279  -2.527  1.00  0.00     0.185 C 
ATOM     54  NH2 ARG A   5      26.106  12.541  -2.349  1.00  0.00    -0.370 N 
ATOM     55  H   UNL     1      24.898   9.760  -3.922  1.00  0.00     0.163 HD
ATOM     56  H   UNL     1      26.693  12.982  -3.090  1.00  0.00     0.159 HD
ATOM     57  H   UNL     1      26.084  13.006  -1.414  1.00  0.00     0.159 HD
BRANCH  53  58
ATOM     58  NH1 ARG A   5      24.957  10.679  -1.500  1.00  0.00    -0.270 NA
ATOM     59  H   UNL     1      24.474   9.756  -1.584  1.00  0.00     0.191 HD
ENDBRANCH  53  58
ENDBRANCH  51  52
ENDBRANCH  50  51
ENDBRANCH  49  50
ENDBRANCH  33  49
ENDBRANCH  30  33
ENDBRANCH  28  29
BRANCH  28  60
ATOM     60  CB  LEU A   4      20.654   8.000  -9.270  1.00  0.00     0.038 C 
BRANCH  60  61
ATOM     61  CG  LEU A   4      21.448   6.772  -9.768  1.00  0.00    -0.015 C 
ATOM     62  CD1 LEU A   4      21.762   5.779  -8.639  1.00  0.00     0.007 C 
ATOM     63  CD2 LEU A   4      20.661   6.068 -10.877  1.00  0.00     0.007 C 
ENDBRANCH  60  61
ENDBRANCH  28  60
ENDBRANCH   3  28
TORSDOF 27
