REMARK SMILES CC(C)C[C@H](NC(=O)[C@H](C)NC(=O)[C@H](CCC(=O)O)NC(=O)[C@@H](N)CO)C(=O)N[C@@H](CCCNC(=N)N)C(=O)N[C@@H](CC(N)=O)C(=O)O
REMARK SMILES IDX 7 1 8 2 6 3 9 5 10 6 11 7 12 8 13 9 14 11 20 12 21 13 22 14
REMARK SMILES IDX 23 16 24 17 25 20 26 21 15 23 16 24 17 25 18 26 19 27 5 29
REMARK SMILES IDX 27 30 29 31 28 32 30 34 38 35 40 36 39 37 41 39 46 40 47 41
REMARK SMILES IDX 48 42 42 44 43 45 44 46 45 47 31 50 32 51 33 52 34 53 35 54
REMARK SMILES IDX 37 55 36 59 4 61 2 62 1 63 3 64
REMARK H PARENT 6 4 11 10 20 15 24 18 24 19 26 22 19 28 29 33 40 38 48 43
REMARK H PARENT 44 48 44 49 34 56 37 57 37 58 36 60
ROOT
ATOM      1  C   ALA A   3      20.043  10.098  -6.459  1.00  0.00     0.242 C 
ATOM      2  O   ALA A   3      20.175   9.196  -5.585  1.00  0.00    -0.273 OA
ATOM      3  N   LEU A   4      20.559   9.922  -7.769  1.00  0.00    -0.343 N 
ATOM      4  H   UNL     1      20.390  10.658  -8.493  1.00  0.00     0.164 HD
ENDROOT
BRANCH   1   5
ATOM      5  CA  ALA A   3      19.333  11.369  -6.138  1.00  0.00     0.168 C 
ATOM      6  CB  ALA A   3      20.176  12.245  -5.221  1.00  0.00     0.041 C 
BRANCH   5   7
ATOM      7  N   ALA A   3      18.092  11.050  -5.475  1.00  0.00    -0.343 N 
ATOM      8  C   GLU A   2      16.885  11.749  -5.736  1.00  0.00     0.243 C 
ATOM      9  O   GLU A   2      16.897  12.786  -6.458  1.00  0.00    -0.273 OA
ATOM     10  H   UNL     1      18.185  10.536  -4.572  1.00  0.00     0.164 HD
BRANCH   8  11
ATOM     11  CA  GLU A   2      15.633  11.294  -5.044  1.00  0.00     0.172 C 
BRANCH  11  12
ATOM     12  N   GLU A   2      14.476  11.743  -5.794  1.00  0.00    -0.343 N 
ATOM     13  C   SER A   1      13.913  13.041  -5.635  1.00  0.00     0.239 C 
ATOM     14  O   SER A   1      14.433  13.853  -4.821  1.00  0.00    -0.273 OA
ATOM     15  H   UNL     1      14.093  11.075  -6.490  1.00  0.00     0.164 HD
BRANCH  13  16
ATOM     16  CA  SER A   1      12.655  13.406  -6.389  1.00  0.00     0.167 C 
BRANCH  16  17
ATOM     17  N   SER A   1      12.460  14.858  -6.404  1.00  0.00    -0.318 NA
ATOM     18  H   UNL     1      12.301  15.194  -5.426  1.00  0.00     0.119 HD
ATOM     19  H   UNL     1      13.322  15.325  -6.772  1.00  0.00     0.119 HD
ENDBRANCH  16  17
BRANCH  16  20
ATOM     20  CB  SER A   1      12.663  12.873  -7.841  1.00  0.00     0.184 C 
BRANCH  20  21
ATOM     21  OG  SER A   1      11.423  13.090  -8.450  1.00  0.00    -0.394 OA
ATOM     22  H   UNL     1      11.425  14.026  -8.779  1.00  0.00     0.210 HD
ENDBRANCH  20  21
ENDBRANCH  16  20
ENDBRANCH  13  16
ENDBRANCH  11  12
BRANCH  11  23
ATOM     23  CB  GLU A   2      15.582   9.748  -4.923  1.00  0.00     0.047 C 
BRANCH  23  24
ATOM     24  CG  GLU A   2      14.422   9.253  -4.055  1.00  0.00     0.125 C 
BRANCH  24  25
ATOM     25  CD  GLU A   2      13.103   9.292  -4.764  1.00  0.00     0.303 C 
ATOM     26  OE1 GLU A   2      12.208  10.098  -4.393  1.00  0.00    -0.252 OA
BRANCH  25  27
ATOM     27  OE2 GLU A   2      12.869   8.444  -5.842  1.00  0.00    -0.481 OA
ATOM     28  H   UNL     1      11.986   8.465  -6.338  1.00  0.00     0.296 HD
ENDBRANCH  25  27
ENDBRANCH  24  25
ENDBRANCH  23  24
ENDBRANCH  11  23
ENDBRANCH   8  11
ENDBRANCH   5   7
ENDBRANCH   1   5
BRANCH   3  29
ATOM     29  CA  LEU A   4      21.345   8.760  -8.136  1.00  0.00     0.171 C 
BRANCH  29  30
ATOM     30  C   LEU A   4      22.711   9.217  -8.518  1.00  0.00     0.243 C 
ATOM     31  N   ARG A   5      23.821   8.720  -7.785  1.00  0.00    -0.343 N 
ATOM     32  O   LEU A   4      22.875  10.032  -9.466  1.00  0.00    -0.273 OA
ATOM     33  H   UNL     1      23.666   8.029  -7.015  1.00  0.00     0.164 HD
BRANCH  31  34
ATOM     34  CA  ARG A   5      25.185   9.122  -8.073  1.00  0.00     0.171 C 
BRANCH  34  35
ATOM     35  C   ARG A   5      25.899   7.968  -8.685  1.00  0.00     0.243 C 
ATOM     36  N   ASN A   6      25.913   7.864 -10.102  1.00  0.00    -0.341 N 
ATOM     37  O   ARG A   5      26.447   7.087  -7.969  1.00  0.00    -0.273 OA
ATOM     38  H   UNL     1      25.489   8.647 -10.651  1.00  0.00     0.164 HD
BRANCH  36  39
ATOM     39  CA  ASN A   6      26.542   6.751 -10.804  1.00  0.00     0.201 C 
BRANCH  39  40
ATOM     40  C   ASN A   6      27.993   6.642 -10.416  1.00  0.00     0.326 C 
ATOM     41  O   ASN A   6      28.794   7.579 -10.677  1.00  0.00    -0.250 OA
BRANCH  40  42
ATOM     42  OXT ASN A   6      28.451   5.499  -9.768  1.00  0.00    -0.480 OA
ATOM     43  H   UNL     1      29.424   5.409  -9.500  1.00  0.00     0.296 HD
ENDBRANCH  40  42
ENDBRANCH  39  40
BRANCH  39  44
ATOM     44  CB  ASN A   6      26.424   6.947 -12.323  1.00  0.00     0.136 C 
BRANCH  44  45
ATOM     45  CG  ASN A   6      25.010   7.180 -12.773  1.00  0.00     0.220 C 
ATOM     46  ND2 ASN A   6      24.753   8.090 -13.833  1.00  0.00    -0.370 N 
ATOM     47  OD1 ASN A   6      24.053   6.558 -12.243  1.00  0.00    -0.275 OA
ATOM     48  H   UNL     1      23.775   8.258 -14.156  1.00  0.00     0.159 HD
ATOM     49  H   UNL     1      25.533   8.600 -14.306  1.00  0.00     0.159 HD
ENDBRANCH  44  45
ENDBRANCH  39  44
ENDBRANCH  36  39
ENDBRANCH  34  35
BRANCH  34  50
ATOM     50  CB  ARG A   5      25.863   9.605  -6.796  1.00  0.00     0.037 C 
BRANCH  50  51
ATOM     51  CG  ARG A   5      25.166  10.860  -6.270  1.00  0.00     0.024 C 
BRANCH  51  52
ATOM     52  CD  ARG A   5      25.842  11.390  -5.014  1.00  0.00     0.116 C 
BRANCH  52  53
ATOM     53  NE  ARG A   5      25.378  10.687  -3.820  1.00  0.00    -0.357 N 
ATOM     54  CZ  ARG A   5      25.470  11.282  -2.526  1.00  0.00     0.185 C 
ATOM     55  NH2 ARG A   5      26.109  12.546  -2.351  1.00  0.00    -0.370 N 
ATOM     56  H   UNL     1      24.899   9.761  -3.912  1.00  0.00     0.163 HD
ATOM     57  H   UNL     1      26.699  12.981  -3.092  1.00  0.00     0.159 HD
ATOM     58  H   UNL     1      26.084  13.022  -1.422  1.00  0.00     0.159 HD
BRANCH  54  59
ATOM     59  NH1 ARG A   5      24.956  10.671  -1.506  1.00  0.00    -0.270 NA
ATOM     60  H   UNL     1      24.999  11.075  -0.544  1.00  0.00     0.191 HD
ENDBRANCH  54  59
ENDBRANCH  52  53
ENDBRANCH  51  52
ENDBRANCH  50  51
ENDBRANCH  34  50
ENDBRANCH  31  34
ENDBRANCH  29  30
BRANCH  29  61
ATOM     61  CB  LEU A   4      20.654   7.999  -9.269  1.00  0.00     0.038 C 
BRANCH  61  62
ATOM     62  CG  LEU A   4      21.448   6.772  -9.767  1.00  0.00    -0.015 C 
ATOM     63  CD1 LEU A   4      21.762   5.779  -8.638  1.00  0.00     0.007 C 
ATOM     64  CD2 LEU A   4      20.662   6.068 -10.877  1.00  0.00     0.007 C 
ENDBRANCH  61  62
ENDBRANCH  29  61
ENDBRANCH   3  29
TORSDOF 28
