REMARK SMILES CC[C@H](C)[C@H](NC(=O)[C@H](Cc1c[nH]cn1)NC(=O)[C@H](Cc1ccccc1)NC(=O)[C@@H](N)CO)C(=O)N[C@@H](CCCNC(=N)N)C(=O)N[C@@H](CC(N)=O)C(=O)O
REMARK SMILES IDX 7 1 8 2 6 3 9 5 16 6 17 7 18 8 19 10 27 11 28 12 29 13 30 15
REMARK SMILES IDX 31 16 32 19 33 20 20 22 21 23 22 24 26 25 23 26 25 27 24 28
REMARK SMILES IDX 10 29 11 30 15 31 12 32 14 33 13 34 5 36 34 37 36 38 35 39
REMARK SMILES IDX 37 41 45 42 47 43 46 44 48 46 53 47 54 48 55 49 49 51 50 52
REMARK SMILES IDX 51 53 52 54 38 57 39 58 40 59 41 60 42 61 44 62 43 66 3 68
REMARK SMILES IDX 4 69 2 70 1 71
REMARK H PARENT 6 4 16 9 27 14 31 17 31 18 33 21 13 35 36 40 47 45 55 50 51 55
REMARK H PARENT 51 56 41 63 44 64 44 65 43 67
ROOT
ATOM      1  C   HIS A   3      20.051  10.096  -6.460  1.00  0.00     0.243 C 
ATOM      2  O   HIS A   3      20.166   9.177  -5.601  1.00  0.00    -0.273 OA
ATOM      3  N   ILE A   4      20.575   9.938  -7.768  1.00  0.00    -0.342 N 
ATOM      4  H   UNL     1      20.489  10.731  -8.444  1.00  0.00     0.164 HD
ENDROOT
BRANCH   1   5
ATOM      5  CA  HIS A   3      19.346  11.367  -6.128  1.00  0.00     0.177 C 
BRANCH   5   6
ATOM      6  N   HIS A   3      18.088  11.043  -5.507  1.00  0.00    -0.342 N 
ATOM      7  C   PHE A   2      16.887  11.749  -5.773  1.00  0.00     0.243 C 
ATOM      8  O   PHE A   2      16.903  12.793  -6.482  1.00  0.00    -0.273 OA
ATOM      9  H   UNL     1      18.163  10.480  -4.635  1.00  0.00     0.164 HD
BRANCH   7  10
ATOM     10  CA  PHE A   2      15.652  11.314  -5.058  1.00  0.00     0.175 C 
BRANCH  10  11
ATOM     11  N   PHE A   2      14.455  11.741  -5.770  1.00  0.00    -0.343 N 
ATOM     12  C   SER A   1      13.914  13.050  -5.637  1.00  0.00     0.239 C 
ATOM     13  O   SER A   1      14.442  13.870  -4.836  1.00  0.00    -0.273 OA
ATOM     14  H   UNL     1      13.873  11.001  -6.218  1.00  0.00     0.164 HD
BRANCH  12  15
ATOM     15  CA  SER A   1      12.660  13.411  -6.390  1.00  0.00     0.167 C 
BRANCH  15  16
ATOM     16  N   SER A   1      12.475  14.863  -6.375  1.00  0.00    -0.318 NA
ATOM     17  H   UNL     1      11.521  15.090  -6.739  1.00  0.00     0.119 HD
ATOM     18  H   UNL     1      13.174  15.315  -7.010  1.00  0.00     0.119 HD
ENDBRANCH  15  16
BRANCH  15  19
ATOM     19  CB  SER A   1      12.688  12.878  -7.844  1.00  0.00     0.184 C 
BRANCH  19  20
ATOM     20  OG  SER A   1      11.436  13.047  -8.450  1.00  0.00    -0.394 OA
ATOM     21  H   UNL     1      11.446  13.936  -8.892  1.00  0.00     0.210 HD
ENDBRANCH  19  20
ENDBRANCH  15  19
ENDBRANCH  12  15
ENDBRANCH  10  11
BRANCH  10  22
ATOM     22  CB  PHE A   2      15.612   9.774  -4.888  1.00  0.00     0.070 C 
BRANCH  22  23
ATOM     23  CG  PHE A   2      14.442   9.290  -4.090  1.00  0.00    -0.045 A 
ATOM     24  CD1 PHE A   2      13.902  10.047  -3.033  1.00  0.00     0.004 A 
ATOM     25  CD2 PHE A   2      13.968   7.990  -4.310  1.00  0.00     0.004 A 
ATOM     26  CE1 PHE A   2      12.868   9.536  -2.260  1.00  0.00     0.000 A 
ATOM     27  CE2 PHE A   2      12.939   7.477  -3.521  1.00  0.00     0.000 A 
ATOM     28  CZ  PHE A   2      12.386   8.252  -2.502  1.00  0.00     0.000 A 
ENDBRANCH  22  23
ENDBRANCH  10  22
ENDBRANCH   7  10
ENDBRANCH   5   6
BRANCH   5  29
ATOM     29  CB  HIS A   3      20.177  12.263  -5.199  1.00  0.00     0.093 C 
BRANCH  29  30
ATOM     30  CG  HIS A   3      20.421  11.672  -3.835  1.00  0.00     0.061 A 
ATOM     31  ND1 HIS A   3      21.468  10.878  -3.533  1.00  0.00    -0.242 NA
ATOM     32  CD2 HIS A   3      19.620  11.834  -2.726  1.00  0.00     0.107 A 
ATOM     33  CE1 HIS A   3      21.277  10.573  -2.232  1.00  0.00     0.196 A 
ATOM     34  NE2 HIS A   3      20.167  11.138  -1.719  1.00  0.00    -0.351 N 
ATOM     35  H   UNL     1      19.805  11.048  -0.744  1.00  0.00     0.167 HD
ENDBRANCH  29  30
ENDBRANCH   5  29
ENDBRANCH   1   5
BRANCH   3  36
ATOM     36  CA  ILE A   4      21.342   8.772  -8.160  1.00  0.00     0.174 C 
BRANCH  36  37
ATOM     37  C   ILE A   4      22.716   9.217  -8.531  1.00  0.00     0.243 C 
ATOM     38  N   ARG A   5      23.820   8.719  -7.788  1.00  0.00    -0.343 N 
ATOM     39  O   ILE A   4      22.892  10.046  -9.465  1.00  0.00    -0.273 OA
ATOM     40  H   UNL     1      23.660   8.029  -7.019  1.00  0.00     0.164 HD
BRANCH  38  41
ATOM     41  CA  ARG A   5      25.185   9.120  -8.072  1.00  0.00     0.171 C 
BRANCH  41  42
ATOM     42  C   ARG A   5      25.900   7.966  -8.685  1.00  0.00     0.243 C 
ATOM     43  N   ASN A   6      25.913   7.864 -10.102  1.00  0.00    -0.341 N 
ATOM     44  O   ARG A   5      26.448   7.086  -7.969  1.00  0.00    -0.273 OA
ATOM     45  H   UNL     1      25.488   8.647 -10.650  1.00  0.00     0.164 HD
BRANCH  43  46
ATOM     46  CA  ASN A   6      26.542   6.750 -10.804  1.00  0.00     0.201 C 
BRANCH  46  47
ATOM     47  C   ASN A   6      27.993   6.642 -10.416  1.00  0.00     0.326 C 
ATOM     48  O   ASN A   6      28.794   7.579 -10.677  1.00  0.00    -0.250 OA
BRANCH  47  49
ATOM     49  OXT ASN A   6      28.451   5.499  -9.768  1.00  0.00    -0.480 OA
ATOM     50  H   UNL     1      29.424   5.409  -9.499  1.00  0.00     0.296 HD
ENDBRANCH  47  49
ENDBRANCH  46  47
BRANCH  46  51
ATOM     51  CB  ASN A   6      26.424   6.947 -12.323  1.00  0.00     0.136 C 
BRANCH  51  52
ATOM     52  CG  ASN A   6      25.010   7.181 -12.773  1.00  0.00     0.220 C 
ATOM     53  ND2 ASN A   6      24.753   8.091 -13.833  1.00  0.00    -0.370 N 
ATOM     54  OD1 ASN A   6      24.053   6.558 -12.243  1.00  0.00    -0.275 OA
ATOM     55  H   UNL     1      23.775   8.259 -14.156  1.00  0.00     0.159 HD
ATOM     56  H   UNL     1      25.533   8.600 -14.306  1.00  0.00     0.159 HD
ENDBRANCH  51  52
ENDBRANCH  46  51
ENDBRANCH  43  46
ENDBRANCH  41  42
BRANCH  41  57
ATOM     57  CB  ARG A   5      25.860   9.602  -6.793  1.00  0.00     0.037 C 
BRANCH  57  58
ATOM     58  CG  ARG A   5      25.166  10.860  -6.271  1.00  0.00     0.024 C 
BRANCH  58  59
ATOM     59  CD  ARG A   5      25.840  11.391  -5.014  1.00  0.00     0.116 C 
BRANCH  59  60
ATOM     60  NE  ARG A   5      25.376  10.685  -3.823  1.00  0.00    -0.357 N 
ATOM     61  CZ  ARG A   5      25.468  11.279  -2.527  1.00  0.00     0.185 C 
ATOM     62  NH2 ARG A   5      26.104  12.542  -2.350  1.00  0.00    -0.370 N 
ATOM     63  H   UNL     1      24.896   9.760  -3.921  1.00  0.00     0.163 HD
ATOM     64  H   UNL     1      26.082  13.007  -1.415  1.00  0.00     0.159 HD
ATOM     65  H   UNL     1      26.689  12.985  -3.091  1.00  0.00     0.159 HD
BRANCH  61  66
ATOM     66  NH1 ARG A   5      24.962  10.677  -1.498  1.00  0.00    -0.270 NA
ATOM     67  H   UNL     1      24.486   9.751  -1.581  1.00  0.00     0.191 HD
ENDBRANCH  61  66
ENDBRANCH  59  60
ENDBRANCH  58  59
ENDBRANCH  57  58
ENDBRANCH  41  57
ENDBRANCH  38  41
ENDBRANCH  36  37
BRANCH  36  68
ATOM     68  CB  ILE A   4      20.627   7.976  -9.280  1.00  0.00     0.018 C 
ATOM     69  CG1 ILE A   4      20.213   8.830 -10.494  1.00  0.00     0.010 C 
BRANCH  68  70
ATOM     70  CG2 ILE A   4      21.453   6.764  -9.761  1.00  0.00     0.002 C 
ATOM     71  CD1 ILE A   4      21.771   5.774  -8.641  1.00  0.00     0.004 C 
ENDBRANCH  68  70
ENDBRANCH  36  68
ENDBRANCH   3  36
TORSDOF 28
