REMARK SMILES CC(C)C[C@H](NC(=O)[C@H](Cc1ccc(O)cc1)NC(=O)CNC(=O)[C@@H](N)CO)C(=O)N[C@@H](CCCNC(=N)N)C(=O)N[C@@H](CC(N)=O)C(=O)O
REMARK SMILES IDX 7 1 8 2 6 3 9 5 18 6 19 7 20 8 21 10 22 11 23 12 24 13 25 15
REMARK SMILES IDX 26 16 27 19 28 20 10 22 11 23 12 24 17 25 13 26 16 27 14 28
REMARK SMILES IDX 15 29 5 31 29 32 31 33 30 34 32 36 40 37 42 38 41 39 43 41
REMARK SMILES IDX 48 42 49 43 50 44 44 46 45 47 46 48 47 49 33 52 34 53 35 54
REMARK SMILES IDX 36 55 37 56 39 57 38 61 4 63 2 64 1 65 3 66
REMARK H PARENT 6 4 18 9 22 14 26 17 26 18 28 21 15 30 31 35 42 40 50 45 46 50
REMARK H PARENT 46 51 36 58 39 59 39 60 38 62
ROOT
ATOM      1  C   TYR A   3       1.436  -0.415  -0.027  1.00  0.00     0.243 C 
ATOM      2  O   TYR A   3       1.007   0.556   0.654  1.00  0.00    -0.273 OA
ATOM      3  N   LEU A   4       0.772  -0.797  -1.239  1.00  0.00    -0.343 N 
ATOM      4  H   UNL     1       1.049  -1.695  -1.695  1.00  0.00     0.164 HD
ENDROOT
BRANCH   1   5
ATOM      5  CA  TYR A   3       2.621  -1.205   0.457  1.00  0.00     0.175 C 
BRANCH   5   6
ATOM      6  N   TYR A   3       3.614  -0.315   1.076  1.00  0.00    -0.342 N 
ATOM      7  C   GLY A   2       4.321   0.686   0.325  1.00  0.00     0.240 C 
ATOM      8  O   GLY A   2       3.946   0.989  -0.839  1.00  0.00    -0.273 OA
ATOM      9  H   UNL     1       3.861  -0.443   2.085  1.00  0.00     0.164 HD
BRANCH   7  10
ATOM     10  CA  GLY A   2       5.491   1.409   0.932  1.00  0.00     0.216 C 
BRANCH  10  11
ATOM     11  N   GLY A   2       6.693   1.226   0.116  1.00  0.00    -0.346 N 
ATOM     12  C   SER A   1       7.953   1.792   0.502  1.00  0.00     0.239 C 
ATOM     13  O   SER A   1       8.071   2.375   1.617  1.00  0.00    -0.273 OA
ATOM     14  H   UNL     1       6.644   0.679  -0.774  1.00  0.00     0.164 HD
BRANCH  12  15
ATOM     15  CA  SER A   1       9.154   1.645  -0.402  1.00  0.00     0.167 C 
BRANCH  15  16
ATOM     16  N   SER A   1       9.910   2.899  -0.490  1.00  0.00    -0.318 NA
ATOM     17  H   UNL     1      10.228   3.186   0.466  1.00  0.00     0.119 HD
ATOM     18  H   UNL     1       9.274   3.649  -0.846  1.00  0.00     0.119 HD
ENDBRANCH  15  16
BRANCH  15  19
ATOM     19  CB  SER A   1      10.058   0.510   0.103  1.00  0.00     0.184 C 
BRANCH  19  20
ATOM     20  OG  SER A   1      11.107   0.284  -0.800  1.00  0.00    -0.394 OA
ATOM     21  H   UNL     1      11.809   0.960  -0.606  1.00  0.00     0.210 HD
ENDBRANCH  19  20
ENDBRANCH  15  19
ENDBRANCH  12  15
ENDBRANCH  10  11
ENDBRANCH   7  10
ENDBRANCH   5   6
BRANCH   5  22
ATOM     22  CB  TYR A   3       2.149  -2.292   1.443  1.00  0.00     0.070 C 
BRANCH  22  23
ATOM     23  CG  TYR A   3       3.248  -3.276   1.754  1.00  0.00    -0.045 A 
ATOM     24  CD1 TYR A   3       3.579  -4.277   0.825  1.00  0.00     0.007 A 
ATOM     25  CD2 TYR A   3       3.971  -3.188   2.956  1.00  0.00     0.007 A 
ATOM     26  CE1 TYR A   3       4.608  -5.183   1.100  1.00  0.00     0.046 A 
ATOM     27  CE2 TYR A   3       5.005  -4.091   3.225  1.00  0.00     0.046 A 
ATOM     28  CZ  TYR A   3       5.326  -5.091   2.298  1.00  0.00     0.115 A 
BRANCH  28  29
ATOM     29  OH  TYR A   3       6.356  -5.993   2.554  1.00  0.00    -0.508 OA
ATOM     30  H   UNL     1       6.901  -5.953   3.408  1.00  0.00     0.293 HD
ENDBRANCH  28  29
ENDBRANCH  22  23
ENDBRANCH   5  22
ENDBRANCH   1   5
BRANCH   3  31
ATOM     31  CA  LEU A   4      -0.268   0.034  -1.852  1.00  0.00     0.171 C 
BRANCH  31  32
ATOM     32  C   LEU A   4      -1.571  -0.179  -1.130  1.00  0.00     0.243 C 
ATOM     33  N   ARG A   5      -2.279   0.944  -0.583  1.00  0.00    -0.343 N 
ATOM     34  O   LEU A   4      -2.035  -1.347  -1.014  1.00  0.00    -0.273 OA
ATOM     35  H   UNL     1      -1.819   1.883  -0.619  1.00  0.00     0.164 HD
BRANCH  33  36
ATOM     36  CA  ARG A   5      -3.554   0.822   0.130  1.00  0.00     0.171 C 
BRANCH  36  37
ATOM     37  C   ARG A   5      -4.557   1.783  -0.462  1.00  0.00     0.243 C 
ATOM     38  N   ASN A   6      -5.956   1.459  -0.460  1.00  0.00    -0.341 N 
ATOM     39  O   ARG A   5      -4.166   2.882  -0.948  1.00  0.00    -0.273 OA
ATOM     40  H   UNL     1      -6.254   0.532  -0.075  1.00  0.00     0.164 HD
BRANCH  38  41
ATOM     41  CA  ASN A   6      -6.968   2.402  -0.949  1.00  0.00     0.201 C 
BRANCH  41  42
ATOM     42  C   ASN A   6      -7.074   3.567  -0.002  1.00  0.00     0.326 C 
ATOM     43  O   ASN A   6      -7.293   3.373   1.225  1.00  0.00    -0.250 OA
BRANCH  42  44
ATOM     44  OXT ASN A   6      -6.930   4.864  -0.484  1.00  0.00    -0.480 OA
ATOM     45  H   UNL     1      -7.004   5.659   0.138  1.00  0.00     0.296 HD
ENDBRANCH  42  44
ENDBRANCH  41  42
BRANCH  41  46
ATOM     46  CB  ASN A   6      -8.328   1.699  -1.102  1.00  0.00     0.136 C 
BRANCH  46  47
ATOM     47  CG  ASN A   6      -9.323   2.584  -1.796  1.00  0.00     0.220 C 
ATOM     48  ND2 ASN A   6      -9.376   2.632  -3.224  1.00  0.00    -0.370 N 
ATOM     49  OD1 ASN A   6     -10.075   3.332  -1.117  1.00  0.00    -0.275 OA
ATOM     50  H   UNL     1      -8.724   2.057  -3.801  1.00  0.00     0.159 HD
ATOM     51  H   UNL     1     -10.048   3.277  -3.701  1.00  0.00     0.159 HD
ENDBRANCH  46  47
ENDBRANCH  41  46
ENDBRANCH  38  41
ENDBRANCH  36  37
BRANCH  36  52
ATOM     52  CB  ARG A   5      -3.320   1.105   1.630  1.00  0.00     0.037 C 
BRANCH  52  53
ATOM     53  CG  ARG A   5      -4.529   0.824   2.542  1.00  0.00     0.024 C 
BRANCH  53  54
ATOM     54  CD  ARG A   5      -4.893  -0.667   2.609  1.00  0.00     0.116 C 
BRANCH  54  55
ATOM     55  NE  ARG A   5      -5.861  -0.926   3.681  1.00  0.00    -0.357 N 
ATOM     56  CZ  ARG A   5      -6.371  -2.239   3.979  1.00  0.00     0.185 C 
ATOM     57  NH2 ARG A   5      -7.240  -2.414   5.095  1.00  0.00    -0.370 N 
ATOM     58  H   UNL     1      -6.183  -0.133   4.282  1.00  0.00     0.163 HD
ATOM     59  H   UNL     1      -7.687  -3.340   5.276  1.00  0.00     0.159 HD
ATOM     60  H   UNL     1      -7.475  -1.613   5.725  1.00  0.00     0.159 HD
BRANCH  56  61
ATOM     61  NH1 ARG A   5      -6.063  -3.270   3.250  1.00  0.00    -0.270 NA
ATOM     62  H   UNL     1      -5.441  -3.219   2.417  1.00  0.00     0.191 HD
ENDBRANCH  56  61
ENDBRANCH  54  55
ENDBRANCH  53  54
ENDBRANCH  52  53
ENDBRANCH  36  52
ENDBRANCH  33  36
ENDBRANCH  31  32
BRANCH  31  63
ATOM     63  CB  LEU A   4      -0.435  -0.301  -3.349  1.00  0.00     0.038 C 
BRANCH  63  64
ATOM     64  CG  LEU A   4       0.835  -0.023  -4.191  1.00  0.00    -0.015 C 
ATOM     65  CD1 LEU A   4       0.682  -0.650  -5.582  1.00  0.00     0.007 C 
ATOM     66  CD2 LEU A   4       1.116   1.481  -4.326  1.00  0.00     0.007 C 
ENDBRANCH  63  64
ENDBRANCH  31  63
ENDBRANCH   3  31
TORSDOF 27
