REMARK SMILES C[C@H](NC(=O)[C@@H](NC(=O)[C@H](Cc1ccccc1)NC(=O)[C@@H](N)CO)[C@@H](C)O)C(=O)N[C@@H](CCCNC(=N)N)C(=O)N[C@@H](CC(N)=O)C(=O)O
REMARK SMILES IDX 4 1 5 2 3 3 6 5 7 6 8 7 9 8 10 10 18 11 19 12 20 13 21 15
REMARK SMILES IDX 22 16 23 19 24 20 11 22 12 23 13 24 17 25 14 26 16 27 15 28
REMARK SMILES IDX 25 29 26 30 27 31 2 33 1 34 28 35 30 36 29 37 31 39 39 40
REMARK SMILES IDX 41 41 40 42 42 44 47 45 48 46 49 47 43 49 44 50 45 51 46 52
REMARK SMILES IDX 32 55 33 56 34 57 35 58 36 59 38 60 37 64
REMARK H PARENT 3 4 7 9 18 14 22 17 22 18 24 21 27 32 30 38 41 43 49 48 45 53
REMARK H PARENT 45 54 35 61 38 62 38 63 37 65
ROOT
ATOM      1  C   THR A   3      20.052  10.085  -6.465  1.00  0.00     0.245 C 
ATOM      2  O   THR A   3      20.171   9.172  -5.602  1.00  0.00    -0.273 OA
ATOM      3  N   ALA A   4      20.559   9.909  -7.778  1.00  0.00    -0.343 N 
ATOM      4  H   UNL     1      20.395  10.649  -8.498  1.00  0.00     0.164 HD
ENDROOT
BRANCH   1   5
ATOM      5  CA  THR A   3      19.348  11.361  -6.137  1.00  0.00     0.200 C 
BRANCH   5   6
ATOM      6  N   THR A   3      18.088  11.034  -5.521  1.00  0.00    -0.340 N 
ATOM      7  C   PHE A   2      16.888  11.748  -5.775  1.00  0.00     0.243 C 
ATOM      8  O   PHE A   2      16.905  12.794  -6.480  1.00  0.00    -0.273 OA
ATOM      9  H   UNL     1      18.160  10.446  -4.666  1.00  0.00     0.164 HD
BRANCH   7  10
ATOM     10  CA  PHE A   2      15.652  11.314  -5.059  1.00  0.00     0.175 C 
BRANCH  10  11
ATOM     11  N   PHE A   2      14.456  11.741  -5.770  1.00  0.00    -0.343 N 
ATOM     12  C   SER A   1      13.914  13.050  -5.637  1.00  0.00     0.239 C 
ATOM     13  O   SER A   1      14.442  13.870  -4.836  1.00  0.00    -0.273 OA
ATOM     14  H   UNL     1      13.874  11.001  -6.219  1.00  0.00     0.164 HD
BRANCH  12  15
ATOM     15  CA  SER A   1      12.660  13.411  -6.390  1.00  0.00     0.167 C 
BRANCH  15  16
ATOM     16  N   SER A   1      12.475  14.863  -6.375  1.00  0.00    -0.318 NA
ATOM     17  H   UNL     1      11.521  15.090  -6.739  1.00  0.00     0.119 HD
ATOM     18  H   UNL     1      13.174  15.315  -7.009  1.00  0.00     0.119 HD
ENDBRANCH  15  16
BRANCH  15  19
ATOM     19  CB  SER A   1      12.687  12.878  -7.844  1.00  0.00     0.184 C 
BRANCH  19  20
ATOM     20  OG  SER A   1      11.436  13.047  -8.450  1.00  0.00    -0.394 OA
ATOM     21  H   UNL     1      11.446  13.936  -8.892  1.00  0.00     0.210 HD
ENDBRANCH  19  20
ENDBRANCH  15  19
ENDBRANCH  12  15
ENDBRANCH  10  11
BRANCH  10  22
ATOM     22  CB  PHE A   2      15.611   9.774  -4.887  1.00  0.00     0.070 C 
BRANCH  22  23
ATOM     23  CG  PHE A   2      14.439   9.291  -4.091  1.00  0.00    -0.045 A 
ATOM     24  CD1 PHE A   2      13.901  10.048  -3.033  1.00  0.00     0.004 A 
ATOM     25  CD2 PHE A   2      13.966   7.990  -4.310  1.00  0.00     0.004 A 
ATOM     26  CE1 PHE A   2      12.867   9.536  -2.259  1.00  0.00     0.000 A 
ATOM     27  CE2 PHE A   2      12.939   7.477  -3.520  1.00  0.00     0.000 A 
ATOM     28  CZ  PHE A   2      12.385   8.252  -2.501  1.00  0.00     0.000 A 
ENDBRANCH  22  23
ENDBRANCH  10  22
ENDBRANCH   7  10
ENDBRANCH   5   6
BRANCH   5  29
ATOM     29  CB  THR A   3      20.166  12.275  -5.202  1.00  0.00     0.143 C 
ATOM     30  CG2 THR A   3      20.444  11.689  -3.804  1.00  0.00     0.041 C 
BRANCH  29  31
ATOM     31  OG1 THR A   3      21.364  12.673  -5.821  1.00  0.00    -0.391 OA
ATOM     32  H   UNL     1      21.961  11.881  -5.863  1.00  0.00     0.211 HD
ENDBRANCH  29  31
ENDBRANCH   5  29
ENDBRANCH   1   5
BRANCH   3  33
ATOM     33  CA  ALA A   4      21.341   8.745  -8.151  1.00  0.00     0.168 C 
ATOM     34  CB  ALA A   4      20.664   8.004  -9.295  1.00  0.00     0.041 C 
BRANCH  33  35
ATOM     35  C   ALA A   4      22.708   9.198  -8.529  1.00  0.00     0.242 C 
ATOM     36  N   ARG A   5      23.817   8.706  -7.790  1.00  0.00    -0.343 N 
ATOM     37  O   ALA A   4      22.874  10.026  -9.467  1.00  0.00    -0.273 OA
ATOM     38  H   UNL     1      23.662   7.984  -7.048  1.00  0.00     0.164 HD
BRANCH  36  39
ATOM     39  CA  ARG A   5      25.181   9.117  -8.072  1.00  0.00     0.171 C 
BRANCH  39  40
ATOM     40  C   ARG A   5      25.901   7.967  -8.686  1.00  0.00     0.243 C 
ATOM     41  N   ASN A   6      25.916   7.866 -10.103  1.00  0.00    -0.341 N 
ATOM     42  O   ARG A   5      26.449   7.086  -7.970  1.00  0.00    -0.273 OA
ATOM     43  H   UNL     1      25.496   8.651 -10.651  1.00  0.00     0.164 HD
BRANCH  41  44
ATOM     44  CA  ASN A   6      26.543   6.751 -10.804  1.00  0.00     0.201 C 
BRANCH  44  45
ATOM     45  C   ASN A   6      27.994   6.642 -10.417  1.00  0.00     0.326 C 
ATOM     46  O   ASN A   6      28.795   7.579 -10.677  1.00  0.00    -0.250 OA
BRANCH  45  47
ATOM     47  OXT ASN A   6      28.453   5.497  -9.772  1.00  0.00    -0.480 OA
ATOM     48  H   UNL     1      29.426   5.407  -9.504  1.00  0.00     0.296 HD
ENDBRANCH  45  47
ENDBRANCH  44  45
BRANCH  44  49
ATOM     49  CB  ASN A   6      26.424   6.946 -12.323  1.00  0.00     0.136 C 
BRANCH  49  50
ATOM     50  CG  ASN A   6      25.009   7.181 -12.772  1.00  0.00     0.220 C 
ATOM     51  ND2 ASN A   6      24.753   8.089 -13.834  1.00  0.00    -0.370 N 
ATOM     52  OD1 ASN A   6      24.051   6.563 -12.238  1.00  0.00    -0.275 OA
ATOM     53  H   UNL     1      23.775   8.258 -14.156  1.00  0.00     0.159 HD
ATOM     54  H   UNL     1      25.533   8.595 -14.309  1.00  0.00     0.159 HD
ENDBRANCH  49  50
ENDBRANCH  44  49
ENDBRANCH  41  44
ENDBRANCH  39  40
BRANCH  39  55
ATOM     55  CB  ARG A   5      25.857   9.600  -6.794  1.00  0.00     0.037 C 
BRANCH  55  56
ATOM     56  CG  ARG A   5      25.163  10.856  -6.270  1.00  0.00     0.024 C 
BRANCH  56  57
ATOM     57  CD  ARG A   5      25.839  11.389  -5.014  1.00  0.00     0.116 C 
BRANCH  57  58
ATOM     58  NE  ARG A   5      25.377  10.686  -3.820  1.00  0.00    -0.357 N 
ATOM     59  CZ  ARG A   5      25.469  11.282  -2.527  1.00  0.00     0.185 C 
ATOM     60  NH2 ARG A   5      26.109  12.546  -2.352  1.00  0.00    -0.370 N 
ATOM     61  H   UNL     1      24.896   9.762  -3.911  1.00  0.00     0.163 HD
ATOM     62  H   UNL     1      26.084  13.023  -1.423  1.00  0.00     0.159 HD
ATOM     63  H   UNL     1      26.697  12.982  -3.094  1.00  0.00     0.159 HD
BRANCH  59  64
ATOM     64  NH1 ARG A   5      24.956  10.672  -1.506  1.00  0.00    -0.270 NA
ATOM     65  H   UNL     1      24.999  11.076  -0.544  1.00  0.00     0.191 HD
ENDBRANCH  59  64
ENDBRANCH  57  58
ENDBRANCH  56  57
ENDBRANCH  55  56
ENDBRANCH  39  55
ENDBRANCH  36  39
ENDBRANCH  33  35
ENDBRANCH   3  33
TORSDOF 26
