REMARK SMILES CC(C)C[C@H](NC(=O)[C@@H]1CCCN1C(=O)[C@@H](N)CO)C(=O)NCC(=O)N[C@@H](CCCNC(=N)N)C(=O)N[C@@H](CC(N)=O)C(=O)O
REMARK SMILES IDX 20 1 21 2 22 3 5 5 6 6 7 7 8 8 9 10 13 11 12 12 10 13 11 14
REMARK SMILES IDX 14 15 15 16 16 17 17 18 18 21 19 22 4 24 2 25 1 26 3 27
REMARK SMILES IDX 23 28 24 29 26 30 25 31 27 33 35 34 37 35 36 36 38 38 43 39
REMARK SMILES IDX 44 40 45 41 39 43 40 44 41 45 42 46 28 49 29 50 30 51 31 52
REMARK SMILES IDX 32 53 34 54 33 58
REMARK H PARENT 22 4 6 9 17 19 17 20 19 23 26 32 37 37 45 42 41 47 41 48 31 55
REMARK H PARENT 34 56 34 57 33 59
ROOT
ATOM      1  C   LEU A   3     -18.377 -10.564  -4.854  1.00  0.00     0.243 C 
ATOM      2  O   LEU A   3     -18.758 -11.404  -5.713  1.00  0.00    -0.273 OA
ATOM      3  N   GLY A   4     -18.814 -10.645  -3.497  1.00  0.00    -0.345 N 
ATOM      4  H   UNL     1     -18.406  -9.998  -2.784  1.00  0.00     0.164 HD
ENDROOT
BRANCH   1   5
ATOM      5  CA  LEU A   3     -17.444  -9.462  -5.233  1.00  0.00     0.171 C 
BRANCH   5   6
ATOM      6  N   LEU A   3     -16.190 -10.011  -5.723  1.00  0.00    -0.343 N 
ATOM      7  C   PRO A   2     -15.229 -10.558  -4.823  1.00  0.00     0.243 C 
ATOM      8  O   PRO A   2     -15.453 -10.577  -3.582  1.00  0.00    -0.273 OA
ATOM      9  H   UNL     1     -15.955  -9.948  -6.739  1.00  0.00     0.164 HD
BRANCH   7  10
ATOM     10  CA  PRO A   2     -13.928 -11.080  -5.360  1.00  0.00     0.174 C 
ATOM     11  N   PRO A   2     -14.132 -11.861  -6.575  1.00  0.00    -0.329 N 
ATOM     12  CD  PRO A   2     -13.303 -11.403  -7.677  1.00  0.00     0.120 C 
ATOM     13  CB  PRO A   2     -12.991  -9.937  -5.758  1.00  0.00     0.037 C 
ATOM     14  CG  PRO A   2     -12.370 -10.354  -7.087  1.00  0.00     0.024 C 
BRANCH  11  15
ATOM     15  C   SER A   1     -15.020 -12.996  -6.650  1.00  0.00     0.242 C 
ATOM     16  O   SER A   1     -15.487 -13.485  -5.585  1.00  0.00    -0.273 OA
BRANCH  15  17
ATOM     17  CA  SER A   1     -15.486 -13.543  -7.985  1.00  0.00     0.167 C 
BRANCH  17  18
ATOM     18  N   SER A   1     -15.765 -14.980  -7.906  1.00  0.00    -0.318 NA
ATOM     19  H   UNL     1     -14.903 -15.473  -7.576  1.00  0.00     0.119 HD
ATOM     20  H   UNL     1     -16.521 -15.158  -7.205  1.00  0.00     0.119 HD
ENDBRANCH  17  18
BRANCH  17  21
ATOM     21  CB  SER A   1     -16.734 -12.781  -8.454  1.00  0.00     0.184 C 
BRANCH  21  22
ATOM     22  OG  SER A   1     -17.106 -13.194  -9.742  1.00  0.00    -0.394 OA
ATOM     23  H   UNL     1     -17.647 -14.020  -9.633  1.00  0.00     0.210 HD
ENDBRANCH  21  22
ENDBRANCH  17  21
ENDBRANCH  15  17
ENDBRANCH  11  15
ENDBRANCH   7  10
ENDBRANCH   5   6
BRANCH   5  24
ATOM     24  CB  LEU A   3     -18.096  -8.533  -6.268  1.00  0.00     0.038 C 
BRANCH  24  25
ATOM     25  CG  LEU A   3     -17.542  -7.096  -6.220  1.00  0.00    -0.015 C 
ATOM     26  CD1 LEU A   3     -18.189  -6.270  -7.336  1.00  0.00     0.007 C 
ATOM     27  CD2 LEU A   3     -17.813  -6.425  -4.859  1.00  0.00     0.007 C 
ENDBRANCH  24  25
ENDBRANCH   5  24
ENDBRANCH   1   5
BRANCH   3  28
ATOM     28  CA  GLY A   4     -19.837 -11.568  -3.043  1.00  0.00     0.216 C 
BRANCH  28  29
ATOM     29  C   GLY A   4     -21.162 -11.055  -3.469  1.00  0.00     0.240 C 
ATOM     30  N   ARG A   5     -21.501 -11.137  -4.846  1.00  0.00    -0.343 N 
ATOM     31  O   GLY A   4     -21.958 -10.548  -2.632  1.00  0.00    -0.273 OA
ATOM     32  H   UNL     1     -21.066 -11.905  -5.404  1.00  0.00     0.164 HD
BRANCH  30  33
ATOM     33  CA  ARG A   5     -22.678 -10.495  -5.388  1.00  0.00     0.171 C 
BRANCH  33  34
ATOM     34  C   ARG A   5     -23.896 -11.194  -4.885  1.00  0.00     0.243 C 
ATOM     35  N   ASN A   6     -24.982 -10.402  -4.433  1.00  0.00    -0.341 N 
ATOM     36  O   ARG A   5     -23.964 -12.454  -4.868  1.00  0.00    -0.273 OA
ATOM     37  H   UNL     1     -24.931  -9.364  -4.553  1.00  0.00     0.164 HD
BRANCH  35  38
ATOM     38  CA  ASN A   6     -26.189 -10.994  -3.883  1.00  0.00     0.201 C 
BRANCH  38  39
ATOM     39  C   ASN A   6     -27.052 -11.522  -4.997  1.00  0.00     0.326 C 
ATOM     40  O   ASN A   6     -27.151 -10.892  -6.084  1.00  0.00    -0.250 OA
BRANCH  39  41
ATOM     41  OXT ASN A   6     -27.773 -12.698  -4.811  1.00  0.00    -0.480 OA
ATOM     42  H   UNL     1     -28.370 -13.063  -5.543  1.00  0.00     0.296 HD
ENDBRANCH  39  41
ENDBRANCH  38  39
BRANCH  38  43
ATOM     43  CB  ASN A   6     -26.929  -9.934  -3.062  1.00  0.00     0.136 C 
BRANCH  43  44
ATOM     44  CG  ASN A   6     -28.019 -10.549  -2.252  1.00  0.00     0.220 C 
ATOM     45  ND2 ASN A   6     -27.701 -11.241  -1.053  1.00  0.00    -0.370 N 
ATOM     46  OD1 ASN A   6     -29.213 -10.483  -2.643  1.00  0.00    -0.275 OA
ATOM     47  H   UNL     1     -26.713 -11.314  -0.724  1.00  0.00     0.159 HD
ATOM     48  H   UNL     1     -28.456 -11.688  -0.487  1.00  0.00     0.159 HD
ENDBRANCH  43  44
ENDBRANCH  38  43
ENDBRANCH  35  38
ENDBRANCH  33  34
BRANCH  33  49
ATOM     49  CB  ARG A   5     -22.649 -10.516  -6.917  1.00  0.00     0.037 C 
BRANCH  49  50
ATOM     50  CG  ARG A   5     -21.461  -9.717  -7.460  1.00  0.00     0.024 C 
BRANCH  50  51
ATOM     51  CD  ARG A   5     -21.602  -9.478  -8.964  1.00  0.00     0.116 C 
BRANCH  51  52
ATOM     52  NE  ARG A   5     -21.186  -8.116  -9.284  1.00  0.00    -0.357 N 
ATOM     53  CZ  ARG A   5     -20.072  -7.777 -10.106  1.00  0.00     0.185 C 
ATOM     54  NH2 ARG A   5     -19.197  -8.781 -10.615  1.00  0.00    -0.370 N 
ATOM     55  H   UNL     1     -21.765  -7.335  -8.899  1.00  0.00     0.163 HD
ATOM     56  H   UNL     1     -19.090  -9.711 -10.158  1.00  0.00     0.159 HD
ATOM     57  H   UNL     1     -18.499  -8.538 -11.353  1.00  0.00     0.159 HD
BRANCH  53  58
ATOM     58  NH1 ARG A   5     -19.855  -6.532 -10.387  1.00  0.00    -0.270 NA
ATOM     59  H   UNL     1     -19.050  -6.233 -10.981  1.00  0.00     0.191 HD
ENDBRANCH  53  58
ENDBRANCH  51  52
ENDBRANCH  50  51
ENDBRANCH  49  50
ENDBRANCH  33  49
ENDBRANCH  30  33
ENDBRANCH  28  29
ENDBRANCH   3  28
TORSDOF 24
