REMARK SMILES C[C@H](NC(=O)[C@H](Cc1ccccc1)NC(=O)[C@@H](N)CO)C(=O)N[C@H](C(=O)N[C@@H](CCCNC(=N)N)C(=O)N[C@@H](CC(N)=O)C(=O)O)[C@@H](C)O
REMARK SMILES IDX 21 1 22 2 23 3 2 5 1 6 3 7 4 8 5 9 6 11 14 12 15 13 16 14
REMARK SMILES IDX 17 16 18 17 19 20 20 21 7 23 8 24 9 25 13 26 10 27 12 28
REMARK SMILES IDX 11 29 24 30 25 31 27 32 26 33 28 35 36 36 38 37 37 38 39 40
REMARK SMILES IDX 44 41 45 42 46 43 40 45 41 46 42 47 43 48 29 51 30 52 31 53
REMARK SMILES IDX 32 54 33 55 35 56 34 60 47 62 48 63 49 64
REMARK H PARENT 23 4 3 10 14 15 18 18 18 19 20 22 27 34 38 39 46 44 42 49
REMARK H PARENT 42 50 32 57 35 58 35 59 34 61 49 65
ROOT
ATOM      1  C   ALA A   3     -18.396 -10.523  -4.871  1.00  0.00     0.243 C 
ATOM      2  O   ALA A   3     -18.751 -11.395  -5.710  1.00  0.00    -0.273 OA
ATOM      3  N   THR A   4     -18.846 -10.571  -3.522  1.00  0.00    -0.340 N 
ATOM      4  H   UNL     1     -18.618  -9.762  -2.900  1.00  0.00     0.164 HD
ENDROOT
BRANCH   1   5
ATOM      5  CA  ALA A   3     -17.459  -9.429  -5.261  1.00  0.00     0.168 C 
ATOM      6  CB  ALA A   3     -18.071  -8.537  -6.332  1.00  0.00     0.041 C 
BRANCH   5   7
ATOM      7  N   ALA A   3     -16.218 -10.011  -5.730  1.00  0.00    -0.343 N 
ATOM      8  C   PHE A   2     -15.258 -10.543  -4.824  1.00  0.00     0.243 C 
ATOM      9  O   PHE A   2     -15.482 -10.571  -3.583  1.00  0.00    -0.273 OA
ATOM     10  H   UNL     1     -16.037 -10.064  -6.759  1.00  0.00     0.164 HD
BRANCH   8  11
ATOM     11  CA  PHE A   2     -13.978 -11.060  -5.382  1.00  0.00     0.175 C 
BRANCH  11  12
ATOM     12  N   PHE A   2     -12.858 -10.484  -4.658  1.00  0.00    -0.343 N 
ATOM     13  C   SER A   1     -12.597  -9.082  -4.701  1.00  0.00     0.239 C 
ATOM     14  O   SER A   1     -13.354  -8.307  -5.350  1.00  0.00    -0.273 OA
ATOM     15  H   UNL     1     -12.224 -11.103  -4.102  1.00  0.00     0.164 HD
BRANCH  13  16
ATOM     16  CA  SER A   1     -11.430  -8.545  -3.929  1.00  0.00     0.167 C 
BRANCH  16  17
ATOM     17  N   SER A   1     -10.864  -7.380  -4.607  1.00  0.00    -0.318 NA
ATOM     18  H   UNL     1     -10.544  -7.674  -5.559  1.00  0.00     0.119 HD
ATOM     19  H   UNL     1     -10.001  -7.089  -4.092  1.00  0.00     0.119 HD
ENDBRANCH  16  17
BRANCH  16  20
ATOM     20  CB  SER A   1     -11.839  -8.205  -2.484  1.00  0.00     0.184 C 
BRANCH  20  21
ATOM     21  OG  SER A   1     -12.062  -6.828  -2.339  1.00  0.00    -0.394 OA
ATOM     22  H   UNL     1     -12.321  -6.688  -1.391  1.00  0.00     0.210 HD
ENDBRANCH  20  21
ENDBRANCH  16  20
ENDBRANCH  13  16
ENDBRANCH  11  12
BRANCH  11  23
ATOM     23  CB  PHE A   2     -13.966 -12.596  -5.326  1.00  0.00     0.070 C 
BRANCH  23  24
ATOM     24  CG  PHE A   2     -12.883 -13.199  -6.183  1.00  0.00    -0.045 A 
ATOM     25  CD1 PHE A   2     -12.723 -12.806  -7.526  1.00  0.00     0.004 A 
ATOM     26  CD2 PHE A   2     -12.092 -14.243  -5.682  1.00  0.00     0.004 A 
ATOM     27  CE1 PHE A   2     -11.747 -13.399  -8.324  1.00  0.00     0.000 A 
ATOM     28  CE2 PHE A   2     -11.134 -14.853  -6.495  1.00  0.00     0.000 A 
ATOM     29  CZ  PHE A   2     -10.955 -14.424  -7.811  1.00  0.00     0.000 A 
ENDBRANCH  23  24
ENDBRANCH  11  23
ENDBRANCH   8  11
ENDBRANCH   5   7
ENDBRANCH   1   5
BRANCH   3  30
ATOM     30  CA  THR A   4     -19.809 -11.546  -3.041  1.00  0.00     0.200 C 
BRANCH  30  31
ATOM     31  C   THR A   4     -21.167 -11.066  -3.456  1.00  0.00     0.245 C 
ATOM     32  N   ARG A   5     -21.502 -11.145  -4.836  1.00  0.00    -0.342 N 
ATOM     33  O   THR A   4     -21.968 -10.550  -2.629  1.00  0.00    -0.273 OA
ATOM     34  H   UNL     1     -21.061 -11.907  -5.398  1.00  0.00     0.164 HD
BRANCH  32  35
ATOM     35  CA  ARG A   5     -22.676 -10.498  -5.382  1.00  0.00     0.171 C 
BRANCH  35  36
ATOM     36  C   ARG A   5     -23.896 -11.195  -4.883  1.00  0.00     0.243 C 
ATOM     37  N   ASN A   6     -24.981 -10.402  -4.433  1.00  0.00    -0.341 N 
ATOM     38  O   ARG A   5     -23.965 -12.455  -4.867  1.00  0.00    -0.273 OA
ATOM     39  H   UNL     1     -24.930  -9.364  -4.552  1.00  0.00     0.164 HD
BRANCH  37  40
ATOM     40  CA  ASN A   6     -26.189 -10.994  -3.883  1.00  0.00     0.201 C 
BRANCH  40  41
ATOM     41  C   ASN A   6     -27.052 -11.522  -4.997  1.00  0.00     0.326 C 
ATOM     42  O   ASN A   6     -27.151 -10.892  -6.084  1.00  0.00    -0.250 OA
BRANCH  41  43
ATOM     43  OXT ASN A   6     -27.773 -12.698  -4.811  1.00  0.00    -0.480 OA
ATOM     44  H   UNL     1     -28.370 -13.063  -5.543  1.00  0.00     0.296 HD
ENDBRANCH  41  43
ENDBRANCH  40  41
BRANCH  40  45
ATOM     45  CB  ASN A   6     -26.929  -9.934  -3.062  1.00  0.00     0.136 C 
BRANCH  45  46
ATOM     46  CG  ASN A   6     -28.019 -10.549  -2.252  1.00  0.00     0.220 C 
ATOM     47  ND2 ASN A   6     -27.701 -11.241  -1.053  1.00  0.00    -0.370 N 
ATOM     48  OD1 ASN A   6     -29.213 -10.483  -2.643  1.00  0.00    -0.275 OA
ATOM     49  H   UNL     1     -28.456 -11.688  -0.487  1.00  0.00     0.159 HD
ATOM     50  H   UNL     1     -26.713 -11.314  -0.724  1.00  0.00     0.159 HD
ENDBRANCH  45  46
ENDBRANCH  40  45
ENDBRANCH  37  40
ENDBRANCH  35  36
BRANCH  35  51
ATOM     51  CB  ARG A   5     -22.647 -10.516  -6.911  1.00  0.00     0.037 C 
BRANCH  51  52
ATOM     52  CG  ARG A   5     -21.454  -9.724  -7.457  1.00  0.00     0.024 C 
BRANCH  52  53
ATOM     53  CD  ARG A   5     -21.601  -9.481  -8.961  1.00  0.00     0.116 C 
BRANCH  53  54
ATOM     54  NE  ARG A   5     -21.189  -8.118  -9.280  1.00  0.00    -0.357 N 
ATOM     55  CZ  ARG A   5     -20.073  -7.775 -10.101  1.00  0.00     0.185 C 
ATOM     56  NH2 ARG A   5     -19.201  -8.775 -10.617  1.00  0.00    -0.370 N 
ATOM     57  H   UNL     1     -21.775  -7.343  -8.891  1.00  0.00     0.163 HD
ATOM     58  H   UNL     1     -18.495  -8.517 -11.343  1.00  0.00     0.159 HD
ATOM     59  H   UNL     1     -19.101  -9.714 -10.178  1.00  0.00     0.159 HD
BRANCH  55  60
ATOM     60  NH1 ARG A   5     -19.843  -6.533 -10.385  1.00  0.00    -0.270 NA
ATOM     61  H   UNL     1     -20.452  -5.762 -10.031  1.00  0.00     0.191 HD
ENDBRANCH  55  60
ENDBRANCH  53  54
ENDBRANCH  52  53
ENDBRANCH  51  52
ENDBRANCH  35  51
ENDBRANCH  32  35
ENDBRANCH  30  31
BRANCH  30  62
ATOM     62  CB  THR A   4     -19.646 -11.710  -1.512  1.00  0.00     0.143 C 
ATOM     63  CG2 THR A   4     -20.360 -12.952  -0.987  1.00  0.00     0.041 C 
BRANCH  62  64
ATOM     64  OG1 THR A   4     -18.281 -11.848  -1.196  1.00  0.00    -0.391 OA
ATOM     65  H   UNL     1     -17.952 -10.962  -0.894  1.00  0.00     0.211 HD
ENDBRANCH  62  64
ENDBRANCH  30  62
ENDBRANCH   3  30
TORSDOF 26
