REMARK SMILES N=C(N)NCCC[C@H](NC(=O)[C@@H]1CCCN1C(=O)CNC(=O)[C@H](Cc1ccccc1)NC(=O)[C@@H](N)CO)C(=O)N[C@@H](CC(N)=O)C(=O)O
REMARK SMILES IDX 16 1 12 2 13 3 14 4 15 5 17 6 18 7 19 8 20 9 21 10 22 11
REMARK SMILES IDX 23 13 31 14 32 15 33 16 34 18 35 19 36 22 37 23 24 25 25 26
REMARK SMILES IDX 26 27 30 28 27 29 29 30 28 31 10 32 9 33 11 34 8 36 38 37
REMARK SMILES IDX 40 38 39 39 41 41 46 42 47 43 48 44 42 46 43 47 44 48 45 49
REMARK SMILES IDX 7 52 6 53 5 54 4 55 2 56 3 57 1 61
REMARK H PARENT 20 12 31 17 35 20 35 21 37 24 9 35 40 40 48 45 44 50 44 51
REMARK H PARENT 4 58 3 59 3 60 1 62
ROOT
ATOM      1  N   PRO A   4     -18.940 -10.651  -3.522  1.00  0.00    -0.329 N 
ATOM      2  CA  PRO A   4     -19.107  -9.520  -2.615  1.00  0.00     0.174 C 
ATOM      3  CB  PRO A   4     -20.281  -9.900  -1.713  1.00  0.00     0.037 C 
ATOM      4  CG  PRO A   4     -20.348 -11.422  -1.762  1.00  0.00     0.024 C 
ATOM      5  CD  PRO A   4     -19.714 -11.809  -3.091  1.00  0.00     0.120 C 
ENDROOT
BRANCH   1   6
ATOM      6  C   GLY A   3     -18.434 -10.549  -4.859  1.00  0.00     0.242 C 
ATOM      7  O   GLY A   3     -18.792 -11.391  -5.728  1.00  0.00    -0.273 OA
BRANCH   6   8
ATOM      8  CA  GLY A   3     -17.497  -9.449  -5.251  1.00  0.00     0.216 C 
BRANCH   8   9
ATOM      9  N   GLY A   3     -16.243 -10.010  -5.716  1.00  0.00    -0.345 N 
ATOM     10  C   PHE A   2     -15.270 -10.540  -4.820  1.00  0.00     0.243 C 
ATOM     11  O   PHE A   2     -15.483 -10.571  -3.578  1.00  0.00    -0.273 OA
ATOM     12  H   UNL     1     -16.054 -10.001  -6.744  1.00  0.00     0.164 HD
BRANCH  10  13
ATOM     13  CA  PHE A   2     -13.988 -11.056  -5.384  1.00  0.00     0.175 C 
BRANCH  13  14
ATOM     14  N   PHE A   2     -12.865 -10.482  -4.662  1.00  0.00    -0.343 N 
ATOM     15  C   SER A   1     -12.599  -9.082  -4.704  1.00  0.00     0.239 C 
ATOM     16  O   SER A   1     -13.356  -8.305  -5.350  1.00  0.00    -0.273 OA
ATOM     17  H   UNL     1     -12.232 -11.103  -4.106  1.00  0.00     0.164 HD
BRANCH  15  18
ATOM     18  CA  SER A   1     -11.429  -8.548  -3.933  1.00  0.00     0.167 C 
BRANCH  18  19
ATOM     19  N   SER A   1     -10.860  -7.385  -4.612  1.00  0.00    -0.318 NA
ATOM     20  H   UNL     1     -10.539  -7.682  -5.563  1.00  0.00     0.119 HD
ATOM     21  H   UNL     1      -9.997  -7.095  -4.097  1.00  0.00     0.119 HD
ENDBRANCH  18  19
BRANCH  18  22
ATOM     22  CB  SER A   1     -11.842  -8.201  -2.489  1.00  0.00     0.184 C 
BRANCH  22  23
ATOM     23  OG  SER A   1     -12.052  -6.823  -2.332  1.00  0.00    -0.394 OA
ATOM     24  H   UNL     1     -12.869  -6.602  -2.851  1.00  0.00     0.210 HD
ENDBRANCH  22  23
ENDBRANCH  18  22
ENDBRANCH  15  18
ENDBRANCH  13  14
BRANCH  13  25
ATOM     25  CB  PHE A   2     -13.971 -12.593  -5.329  1.00  0.00     0.070 C 
BRANCH  25  26
ATOM     26  CG  PHE A   2     -12.885 -13.196  -6.184  1.00  0.00    -0.045 A 
ATOM     27  CD1 PHE A   2     -12.723 -12.804  -7.526  1.00  0.00     0.004 A 
ATOM     28  CD2 PHE A   2     -12.094 -14.241  -5.682  1.00  0.00     0.004 A 
ATOM     29  CE1 PHE A   2     -11.747 -13.397  -8.323  1.00  0.00     0.000 A 
ATOM     30  CE2 PHE A   2     -11.135 -14.852  -6.494  1.00  0.00     0.000 A 
ATOM     31  CZ  PHE A   2     -10.956 -14.423  -7.810  1.00  0.00     0.000 A 
ENDBRANCH  25  26
ENDBRANCH  13  25
ENDBRANCH  10  13
ENDBRANCH   8   9
ENDBRANCH   6   8
ENDBRANCH   1   6
BRANCH   2  32
ATOM     32  C   PRO A   4     -17.865  -9.311  -1.789  1.00  0.00     0.243 C 
ATOM     33  N   ARG A   5     -17.385  -7.982  -1.543  1.00  0.00    -0.343 N 
ATOM     34  O   PRO A   4     -17.292 -10.304  -1.262  1.00  0.00    -0.273 OA
ATOM     35  H   UNL     1     -17.833  -7.200  -2.070  1.00  0.00     0.164 HD
BRANCH  33  36
ATOM     36  CA  ARG A   5     -16.520  -7.656  -0.403  1.00  0.00     0.171 C 
BRANCH  36  37
ATOM     37  C   ARG A   5     -17.299  -7.057   0.748  1.00  0.00     0.243 C 
ATOM     38  N   ASN A   6     -18.707  -6.775   0.651  1.00  0.00    -0.341 N 
ATOM     39  O   ARG A   5     -16.689  -6.817   1.826  1.00  0.00    -0.273 OA
ATOM     40  H   UNL     1     -19.248  -7.106  -0.179  1.00  0.00     0.164 HD
BRANCH  38  41
ATOM     41  CA  ASN A   6     -19.450  -6.144   1.744  1.00  0.00     0.201 C 
BRANCH  41  42
ATOM     42  C   ASN A   6     -19.883  -7.199   2.721  1.00  0.00     0.326 C 
ATOM     43  O   ASN A   6     -19.655  -7.051   3.952  1.00  0.00    -0.250 OA
BRANCH  42  44
ATOM     44  OXT ASN A   6     -20.554  -8.332   2.271  1.00  0.00    -0.480 OA
ATOM     45  H   UNL     1     -20.858  -9.048   2.919  1.00  0.00     0.296 HD
ENDBRANCH  42  44
ENDBRANCH  41  42
BRANCH  41  46
ATOM     46  CB  ASN A   6     -20.663  -5.381   1.182  1.00  0.00     0.136 C 
BRANCH  46  47
ATOM     47  CG  ASN A   6     -21.344  -4.566   2.243  1.00  0.00     0.220 C 
ATOM     48  ND2 ASN A   6     -22.450  -5.102   2.970  1.00  0.00    -0.370 N 
ATOM     49  OD1 ASN A   6     -20.915  -3.414   2.519  1.00  0.00    -0.275 OA
ATOM     50  H   UNL     1     -22.912  -4.538   3.718  1.00  0.00     0.159 HD
ATOM     51  H   UNL     1     -22.805  -6.063   2.768  1.00  0.00     0.159 HD
ENDBRANCH  46  47
ENDBRANCH  41  46
ENDBRANCH  38  41
ENDBRANCH  36  37
BRANCH  36  52
ATOM     52  CB  ARG A   5     -15.330  -6.769  -0.839  1.00  0.00     0.037 C 
BRANCH  52  53
ATOM     53  CG  ARG A   5     -15.663  -5.506  -1.659  1.00  0.00     0.024 C 
BRANCH  53  54
ATOM     54  CD  ARG A   5     -16.525  -4.488  -0.899  1.00  0.00     0.116 C 
BRANCH  54  55
ATOM     55  NE  ARG A   5     -16.516  -3.195  -1.582  1.00  0.00    -0.357 N 
ATOM     56  CZ  ARG A   5     -15.423  -2.257  -1.549  1.00  0.00     0.185 C 
ATOM     57  NH2 ARG A   5     -15.519  -1.046  -2.298  1.00  0.00    -0.370 N 
ATOM     58  H   UNL     1     -17.381  -2.918  -2.099  1.00  0.00     0.163 HD
ATOM     59  H   UNL     1     -14.740  -0.350  -2.284  1.00  0.00     0.159 HD
ATOM     60  H   UNL     1     -16.367  -0.841  -2.871  1.00  0.00     0.159 HD
BRANCH  56  61
ATOM     61  NH1 ARG A   5     -14.354  -2.479  -0.847  1.00  0.00    -0.270 NA
ATOM     62  H   UNL     1     -14.205  -3.333  -0.268  1.00  0.00     0.191 HD
ENDBRANCH  56  61
ENDBRANCH  54  55
ENDBRANCH  53  54
ENDBRANCH  52  53
ENDBRANCH  36  52
ENDBRANCH  33  36
ENDBRANCH   2  32
TORSDOF 24
