REMARK SMILES N=C(N)NCCC[C@H](NC(=O)CNC(=O)[C@@H]1CCCN1C(=O)[C@H](Cc1ccccc1)NC(=O)[C@@H](N)CO)C(=O)N[C@@H](CC(N)=O)C(=O)O
REMARK SMILES IDX 14 1 15 2 13 3 16 5 20 6 19 7 17 8 18 9 21 10 22 11 23 12
REMARK SMILES IDX 31 13 32 14 33 15 34 17 35 18 36 21 37 22 24 24 25 25 26 26
REMARK SMILES IDX 30 27 27 28 29 29 28 30 12 31 10 32 9 33 11 34 8 36 38 37
REMARK SMILES IDX 40 38 39 39 41 41 46 42 47 43 48 44 42 46 43 47 44 48 45 49
REMARK SMILES IDX 7 52 6 53 5 54 4 55 2 56 3 57 1 61
REMARK H PARENT 13 4 31 16 35 19 35 20 37 23 9 35 40 40 48 45 44 50 44 51 4 58
REMARK H PARENT 3 59 3 60 1 62
ROOT
ATOM      1  C   PRO A   3     -18.361 -10.555  -4.871  1.00  0.00     0.243 C 
ATOM      2  O   PRO A   3     -18.771 -11.392  -5.720  1.00  0.00    -0.273 OA
ATOM      3  N   GLY A   4     -18.809 -10.608  -3.516  1.00  0.00    -0.345 N 
ATOM      4  H   UNL     1     -18.415  -9.927  -2.827  1.00  0.00     0.164 HD
ENDROOT
BRANCH   1   5
ATOM      5  CA  PRO A   3     -17.392  -9.477  -5.267  1.00  0.00     0.174 C 
ATOM      6  N   PRO A   3     -16.613  -9.870  -6.434  1.00  0.00    -0.329 N 
ATOM      7  CD  PRO A   3     -16.862  -9.019  -7.587  1.00  0.00     0.120 C 
ATOM      8  CB  PRO A   3     -18.114  -8.188  -5.664  1.00  0.00     0.037 C 
ATOM      9  CG  PRO A   3     -17.992  -8.084  -7.181  1.00  0.00     0.024 C 
BRANCH   6  10
ATOM     10  C   PHE A   2     -15.602 -10.897  -6.391  1.00  0.00     0.246 C 
ATOM     11  O   PHE A   2     -15.347 -11.459  -5.292  1.00  0.00    -0.272 OA
BRANCH  10  12
ATOM     12  CA  PHE A   2     -14.827 -11.277  -7.637  1.00  0.00     0.176 C 
BRANCH  12  13
ATOM     13  N   PHE A   2     -13.892 -10.205  -7.990  1.00  0.00    -0.343 N 
ATOM     14  C   SER A   1     -13.565  -9.885  -9.353  1.00  0.00     0.239 C 
ATOM     15  O   SER A   1     -13.966 -10.628 -10.289  1.00  0.00    -0.273 OA
ATOM     16  H   UNL     1     -13.444  -9.661  -7.219  1.00  0.00     0.164 HD
BRANCH  14  17
ATOM     17  CA  SER A   1     -12.747  -8.658  -9.688  1.00  0.00     0.167 C 
BRANCH  17  18
ATOM     18  N   SER A   1     -13.389  -7.441  -9.186  1.00  0.00    -0.318 NA
ATOM     19  H   UNL     1     -13.489  -7.493  -8.146  1.00  0.00     0.119 HD
ATOM     20  H   UNL     1     -14.351  -7.377  -9.593  1.00  0.00     0.119 HD
ENDBRANCH  17  18
BRANCH  17  21
ATOM     21  CB  SER A   1     -11.314  -8.764  -9.142  1.00  0.00     0.184 C 
BRANCH  21  22
ATOM     22  OG  SER A   1     -10.638  -9.845  -9.728  1.00  0.00    -0.394 OA
ATOM     23  H   UNL     1     -10.396  -9.565 -10.649  1.00  0.00     0.210 HD
ENDBRANCH  21  22
ENDBRANCH  17  21
ENDBRANCH  14  17
ENDBRANCH  12  13
BRANCH  12  24
ATOM     24  CB  PHE A   2     -14.103 -12.644  -7.542  1.00  0.00     0.070 C 
BRANCH  24  25
ATOM     25  CG  PHE A   2     -12.882 -12.639  -6.649  1.00  0.00    -0.045 A 
ATOM     26  CD1 PHE A   2     -11.660 -12.130  -7.124  1.00  0.00     0.004 A 
ATOM     27  CD2 PHE A   2     -12.941 -13.171  -5.348  1.00  0.00     0.004 A 
ATOM     28  CE1 PHE A   2     -10.531 -12.116  -6.300  1.00  0.00     0.000 A 
ATOM     29  CE2 PHE A   2     -11.808 -13.156  -4.528  1.00  0.00     0.000 A 
ATOM     30  CZ  PHE A   2     -10.606 -12.625  -5.001  1.00  0.00     0.000 A 
ENDBRANCH  24  25
ENDBRANCH  12  24
ENDBRANCH  10  12
ENDBRANCH   6  10
ENDBRANCH   1   5
BRANCH   3  31
ATOM     31  CA  GLY A   4     -19.820 -11.541  -3.045  1.00  0.00     0.216 C 
BRANCH  31  32
ATOM     32  C   GLY A   4     -21.156 -11.049  -3.469  1.00  0.00     0.240 C 
ATOM     33  N   ARG A   5     -21.500 -11.139  -4.845  1.00  0.00    -0.343 N 
ATOM     34  O   GLY A   4     -21.956 -10.550  -2.631  1.00  0.00    -0.273 OA
ATOM     35  H   UNL     1     -21.071 -11.913  -5.399  1.00  0.00     0.164 HD
BRANCH  33  36
ATOM     36  CA  ARG A   5     -22.677 -10.496  -5.386  1.00  0.00     0.171 C 
BRANCH  36  37
ATOM     37  C   ARG A   5     -23.895 -11.194  -4.884  1.00  0.00     0.243 C 
ATOM     38  N   ASN A   6     -24.981 -10.402  -4.433  1.00  0.00    -0.341 N 
ATOM     39  O   ARG A   5     -23.964 -12.455  -4.868  1.00  0.00    -0.273 OA
ATOM     40  H   UNL     1     -24.930  -9.364  -4.553  1.00  0.00     0.164 HD
BRANCH  38  41
ATOM     41  CA  ASN A   6     -26.189 -10.994  -3.883  1.00  0.00     0.201 C 
BRANCH  41  42
ATOM     42  C   ASN A   6     -27.052 -11.522  -4.997  1.00  0.00     0.326 C 
ATOM     43  O   ASN A   6     -27.151 -10.892  -6.084  1.00  0.00    -0.250 OA
BRANCH  42  44
ATOM     44  OXT ASN A   6     -27.773 -12.697  -4.810  1.00  0.00    -0.480 OA
ATOM     45  H   UNL     1     -28.370 -13.062  -5.543  1.00  0.00     0.296 HD
ENDBRANCH  42  44
ENDBRANCH  41  42
BRANCH  41  46
ATOM     46  CB  ASN A   6     -26.929  -9.934  -3.062  1.00  0.00     0.136 C 
BRANCH  46  47
ATOM     47  CG  ASN A   6     -28.019 -10.549  -2.252  1.00  0.00     0.220 C 
ATOM     48  ND2 ASN A   6     -27.701 -11.241  -1.053  1.00  0.00    -0.370 N 
ATOM     49  OD1 ASN A   6     -29.213 -10.483  -2.642  1.00  0.00    -0.275 OA
ATOM     50  H   UNL     1     -26.712 -11.314  -0.725  1.00  0.00     0.159 HD
ATOM     51  H   UNL     1     -28.455 -11.688  -0.487  1.00  0.00     0.159 HD
ENDBRANCH  46  47
ENDBRANCH  41  46
ENDBRANCH  38  41
ENDBRANCH  36  37
BRANCH  36  52
ATOM     52  CB  ARG A   5     -22.651 -10.514  -6.915  1.00  0.00     0.037 C 
BRANCH  52  53
ATOM     53  CG  ARG A   5     -21.459  -9.721  -7.460  1.00  0.00     0.024 C 
BRANCH  53  54
ATOM     54  CD  ARG A   5     -21.605  -9.478  -8.964  1.00  0.00     0.116 C 
BRANCH  54  55
ATOM     55  NE  ARG A   5     -21.188  -8.117  -9.287  1.00  0.00    -0.357 N 
ATOM     56  CZ  ARG A   5     -20.074  -7.777 -10.109  1.00  0.00     0.185 C 
ATOM     57  NH2 ARG A   5     -19.201  -8.780 -10.624  1.00  0.00    -0.370 N 
ATOM     58  H   UNL     1     -21.767  -7.336  -8.900  1.00  0.00     0.163 HD
ATOM     59  H   UNL     1     -18.488  -8.530 -11.345  1.00  0.00     0.159 HD
ATOM     60  H   UNL     1     -19.115  -9.725 -10.194  1.00  0.00     0.159 HD
BRANCH  56  61
ATOM     61  NH1 ARG A   5     -19.851  -6.531 -10.379  1.00  0.00    -0.270 NA
ATOM     62  H   UNL     1     -19.044  -6.231 -10.971  1.00  0.00     0.191 HD
ENDBRANCH  56  61
ENDBRANCH  54  55
ENDBRANCH  53  54
ENDBRANCH  52  53
ENDBRANCH  36  52
ENDBRANCH  33  36
ENDBRANCH  31  32
ENDBRANCH   3  31
TORSDOF 24
