REMARK SMILES CC(C)C[C@H](NC(=O)CNC(=O)[C@H](Cc1ccccc1)NC(=O)[C@@H](N)CO)C(=O)N[C@@H](CCCNC(=N)N)C(=O)N[C@@H](CO)C(=O)O
REMARK SMILES IDX 7 1 8 2 6 3 9 5 10 6 11 7 12 8 13 10 21 11 22 12 23 13 24 15
REMARK SMILES IDX 25 16 26 19 27 20 14 22 15 23 16 24 20 25 17 26 19 27 18 28
REMARK SMILES IDX 5 29 28 30 30 31 29 32 31 34 39 35 41 36 40 37 42 39 45 40
REMARK SMILES IDX 46 41 47 42 43 44 44 45 32 47 33 48 34 49 35 50 36 51 38 52
REMARK SMILES IDX 37 56 4 58 2 59 1 60 3 61
REMARK H PARENT 6 4 10 9 21 14 25 17 25 18 27 21 30 33 41 38 47 43 44 46 35 53
REMARK H PARENT 38 54 38 55 37 57
ROOT
ATOM      1  C   GLY A   3     -18.395 -10.525  -4.883  1.00  0.00     0.240 C 
ATOM      2  O   GLY A   3     -18.757 -11.400  -5.715  1.00  0.00    -0.273 OA
ATOM      3  N   LEU A   4     -18.834 -10.568  -3.531  1.00  0.00    -0.343 N 
ATOM      4  H   UNL     1     -18.540  -9.796  -2.889  1.00  0.00     0.164 HD
ENDROOT
BRANCH   1   5
ATOM      5  CA  GLY A   3     -17.480  -9.434  -5.302  1.00  0.00     0.216 C 
BRANCH   5   6
ATOM      6  N   GLY A   3     -16.221  -9.999  -5.736  1.00  0.00    -0.345 N 
ATOM      7  C   PHE A   2     -15.266 -10.537  -4.827  1.00  0.00     0.243 C 
ATOM      8  O   PHE A   2     -15.494 -10.567  -3.586  1.00  0.00    -0.273 OA
ATOM      9  H   UNL     1     -16.015  -9.992  -6.761  1.00  0.00     0.164 HD
BRANCH   7  10
ATOM     10  CA  PHE A   2     -13.983 -11.057  -5.381  1.00  0.00     0.175 C 
BRANCH  10  11
ATOM     11  N   PHE A   2     -12.863 -10.483  -4.656  1.00  0.00    -0.343 N 
ATOM     12  C   SER A   1     -12.598  -9.082  -4.702  1.00  0.00     0.239 C 
ATOM     13  O   SER A   1     -13.354  -8.306  -5.351  1.00  0.00    -0.273 OA
ATOM     14  H   UNL     1     -12.230 -11.102  -4.099  1.00  0.00     0.164 HD
BRANCH  12  15
ATOM     15  CA  SER A   1     -11.429  -8.547  -3.932  1.00  0.00     0.167 C 
BRANCH  15  16
ATOM     16  N   SER A   1     -10.863  -7.382  -4.610  1.00  0.00    -0.318 NA
ATOM     17  H   UNL     1     -10.542  -7.677  -5.561  1.00  0.00     0.119 HD
ATOM     18  H   UNL     1     -10.000  -7.091  -4.094  1.00  0.00     0.119 HD
ENDBRANCH  15  16
BRANCH  15  19
ATOM     19  CB  SER A   1     -11.839  -8.203  -2.486  1.00  0.00     0.184 C 
BRANCH  19  20
ATOM     20  OG  SER A   1     -12.064  -6.827  -2.332  1.00  0.00    -0.394 OA
ATOM     21  H   UNL     1     -12.954  -6.643  -2.732  1.00  0.00     0.210 HD
ENDBRANCH  19  20
ENDBRANCH  15  19
ENDBRANCH  12  15
ENDBRANCH  10  11
BRANCH  10  22
ATOM     22  CB  PHE A   2     -13.969 -12.594  -5.326  1.00  0.00     0.070 C 
BRANCH  22  23
ATOM     23  CG  PHE A   2     -12.885 -13.197  -6.183  1.00  0.00    -0.045 A 
ATOM     24  CD1 PHE A   2     -12.723 -12.805  -7.525  1.00  0.00     0.004 A 
ATOM     25  CD2 PHE A   2     -12.093 -14.242  -5.681  1.00  0.00     0.004 A 
ATOM     26  CE1 PHE A   2     -11.748 -13.398  -8.323  1.00  0.00     0.000 A 
ATOM     27  CE2 PHE A   2     -11.135 -14.852  -6.494  1.00  0.00     0.000 A 
ATOM     28  CZ  PHE A   2     -10.956 -14.423  -7.810  1.00  0.00     0.000 A 
ENDBRANCH  22  23
ENDBRANCH  10  22
ENDBRANCH   7  10
ENDBRANCH   5   6
ENDBRANCH   1   5
BRANCH   3  29
ATOM     29  CA  LEU A   4     -19.808 -11.534  -3.055  1.00  0.00     0.171 C 
BRANCH  29  30
ATOM     30  C   LEU A   4     -21.166 -11.055  -3.463  1.00  0.00     0.243 C 
ATOM     31  N   ARG A   5     -21.506 -11.141  -4.840  1.00  0.00    -0.343 N 
ATOM     32  O   LEU A   4     -21.968 -10.548  -2.633  1.00  0.00    -0.273 OA
ATOM     33  H   UNL     1     -21.069 -11.907  -5.400  1.00  0.00     0.164 HD
BRANCH  31  34
ATOM     34  CA  ARG A   5     -22.681 -10.495  -5.384  1.00  0.00     0.171 C 
BRANCH  34  35
ATOM     35  C   ARG A   5     -23.901 -11.193  -4.882  1.00  0.00     0.243 C 
ATOM     36  N   SER A   6     -24.982 -10.402  -4.413  1.00  0.00    -0.339 N 
ATOM     37  O   ARG A   5     -23.971 -12.453  -4.871  1.00  0.00    -0.273 OA
ATOM     38  H   UNL     1     -24.907  -9.360  -4.478  1.00  0.00     0.164 HD
BRANCH  36  39
ATOM     39  CA  SER A   6     -26.197 -10.997  -3.877  1.00  0.00     0.218 C 
BRANCH  39  40
ATOM     40  C   SER A   6     -27.060 -11.519  -4.993  1.00  0.00     0.328 C 
ATOM     41  O   SER A   6     -27.144 -10.894  -6.084  1.00  0.00    -0.250 OA
BRANCH  40  42
ATOM     42  OXT SER A   6     -27.804 -12.679  -4.802  1.00  0.00    -0.480 OA
ATOM     43  H   UNL     1     -28.402 -13.040  -5.535  1.00  0.00     0.296 HD
ENDBRANCH  40  42
ENDBRANCH  39  40
BRANCH  39  44
ATOM     44  CB  SER A   6     -26.950  -9.970  -3.027  1.00  0.00     0.193 C 
BRANCH  44  45
ATOM     45  OG  SER A   6     -27.369  -8.885  -3.812  1.00  0.00    -0.394 OA
ATOM     46  H   UNL     1     -27.840  -8.266  -3.197  1.00  0.00     0.210 HD
ENDBRANCH  44  45
ENDBRANCH  39  44
ENDBRANCH  36  39
ENDBRANCH  34  35
BRANCH  34  47
ATOM     47  CB  ARG A   5     -22.649 -10.514  -6.913  1.00  0.00     0.037 C 
BRANCH  47  48
ATOM     48  CG  ARG A   5     -21.456  -9.719  -7.457  1.00  0.00     0.024 C 
BRANCH  48  49
ATOM     49  CD  ARG A   5     -21.601  -9.478  -8.961  1.00  0.00     0.116 C 
BRANCH  49  50
ATOM     50  NE  ARG A   5     -21.186  -8.116  -9.283  1.00  0.00    -0.357 N 
ATOM     51  CZ  ARG A   5     -20.071  -7.777 -10.104  1.00  0.00     0.185 C 
ATOM     52  NH2 ARG A   5     -19.200  -8.781 -10.620  1.00  0.00    -0.370 N 
ATOM     53  H   UNL     1     -21.767  -7.335  -8.900  1.00  0.00     0.163 HD
ATOM     54  H   UNL     1     -19.102  -9.718 -10.178  1.00  0.00     0.159 HD
ATOM     55  H   UNL     1     -18.501  -8.536 -11.357  1.00  0.00     0.159 HD
BRANCH  51  56
ATOM     56  NH1 ARG A   5     -19.851  -6.531 -10.380  1.00  0.00    -0.270 NA
ATOM     57  H   UNL     1     -19.046  -6.232 -10.975  1.00  0.00     0.191 HD
ENDBRANCH  51  56
ENDBRANCH  49  50
ENDBRANCH  48  49
ENDBRANCH  47  48
ENDBRANCH  34  47
ENDBRANCH  31  34
ENDBRANCH  29  30
BRANCH  29  58
ATOM     58  CB  LEU A   4     -19.646 -11.686  -1.535  1.00  0.00     0.038 C 
BRANCH  58  59
ATOM     59  CG  LEU A   4     -20.293 -12.951  -0.948  1.00  0.00    -0.015 C 
ATOM     60  CD1 LEU A   4     -19.611 -14.229  -1.463  1.00  0.00     0.007 C 
ATOM     61  CD2 LEU A   4     -20.194 -12.896   0.581  1.00  0.00     0.007 C 
ENDBRANCH  58  59
ENDBRANCH  29  58
ENDBRANCH   3  29
TORSDOF 26
