REMARK SMILES CC(C)C[C@H](NC(=O)[C@@H](NC(=O)[C@H](C)NC(=O)[C@@H](N)CO)[C@@H](C)O)C(=O)N[C@@H](CCCNC(=N)N)C(=O)N[C@@H](CC(N)=O)C(=O)O
REMARK SMILES IDX 7 1 8 2 6 3 9 5 10 6 11 7 12 8 13 10 14 11 15 12 16 13 17 14
REMARK SMILES IDX 18 16 19 17 20 20 21 21 22 23 23 24 24 25 5 27 25 28 27 29
REMARK SMILES IDX 26 30 28 32 36 33 38 34 37 35 39 37 44 38 45 39 46 40 40 42
REMARK SMILES IDX 41 43 42 44 43 45 29 48 30 49 31 50 32 51 33 52 35 53 34 57
REMARK SMILES IDX 4 59 2 60 1 61 3 62
REMARK H PARENT 6 4 10 9 15 15 19 18 19 19 21 22 24 26 27 31 38 36 46 41 42 46
REMARK H PARENT 42 47 32 54 35 55 35 56 34 58
ROOT
ATOM      1  C   THR A   3     -18.384 -10.530  -4.878  1.00  0.00     0.245 C 
ATOM      2  O   THR A   3     -18.745 -11.403  -5.714  1.00  0.00    -0.273 OA
ATOM      3  N   LEU A   4     -18.842 -10.569  -3.531  1.00  0.00    -0.342 N 
ATOM      4  H   UNL     1     -18.579  -9.784  -2.892  1.00  0.00     0.164 HD
ENDROOT
BRANCH   1   5
ATOM      5  CA  THR A   3     -17.448  -9.435  -5.273  1.00  0.00     0.200 C 
BRANCH   5   6
ATOM      6  N   THR A   3     -16.197 -10.010  -5.739  1.00  0.00    -0.340 N 
ATOM      7  C   ALA A   2     -15.250 -10.560  -4.834  1.00  0.00     0.243 C 
ATOM      8  O   ALA A   2     -15.477 -10.582  -3.593  1.00  0.00    -0.273 OA
ATOM      9  H   UNL     1     -15.967 -10.020  -6.758  1.00  0.00     0.164 HD
BRANCH   7  10
ATOM     10  CA  ALA A   2     -13.964 -11.086  -5.385  1.00  0.00     0.168 C 
ATOM     11  CB  ALA A   2     -13.927 -12.607  -5.281  1.00  0.00     0.041 C 
BRANCH  10  12
ATOM     12  N   ALA A   2     -12.850 -10.488  -4.667  1.00  0.00    -0.343 N 
ATOM     13  C   SER A   1     -12.598  -9.084  -4.707  1.00  0.00     0.239 C 
ATOM     14  O   SER A   1     -13.359  -8.312  -5.354  1.00  0.00    -0.273 OA
ATOM     15  H   UNL     1     -12.219 -11.095  -4.095  1.00  0.00     0.164 HD
BRANCH  13  16
ATOM     16  CA  SER A   1     -11.433  -8.544  -3.933  1.00  0.00     0.167 C 
BRANCH  16  17
ATOM     17  N   SER A   1     -10.868  -7.377  -4.609  1.00  0.00    -0.318 NA
ATOM     18  H   UNL     1     -10.004  -7.087  -4.094  1.00  0.00     0.119 HD
ATOM     19  H   UNL     1     -10.547  -7.671  -5.561  1.00  0.00     0.119 HD
ENDBRANCH  16  17
BRANCH  16  20
ATOM     20  CB  SER A   1     -11.842  -8.205  -2.486  1.00  0.00     0.184 C 
BRANCH  20  21
ATOM     21  OG  SER A   1     -12.061  -6.828  -2.339  1.00  0.00    -0.394 OA
ATOM     22  H   UNL     1     -12.322  -6.689  -1.391  1.00  0.00     0.210 HD
ENDBRANCH  20  21
ENDBRANCH  16  20
ENDBRANCH  13  16
ENDBRANCH  10  12
ENDBRANCH   7  10
ENDBRANCH   5   6
BRANCH   5  23
ATOM     23  CB  THR A   3     -18.088  -8.501  -6.327  1.00  0.00     0.143 C 
ATOM     24  CG2 THR A   3     -17.512  -7.090  -6.232  1.00  0.00     0.041 C 
BRANCH  23  25
ATOM     25  OG1 THR A   3     -17.910  -8.966  -7.642  1.00  0.00    -0.391 OA
ATOM     26  H   UNL     1     -18.373  -9.838  -7.715  1.00  0.00     0.211 HD
ENDBRANCH  23  25
ENDBRANCH   5  23
ENDBRANCH   1   5
BRANCH   3  27
ATOM     27  CA  LEU A   4     -19.812 -11.538  -3.058  1.00  0.00     0.171 C 
BRANCH  27  28
ATOM     28  C   LEU A   4     -21.168 -11.059  -3.465  1.00  0.00     0.243 C 
ATOM     29  N   ARG A   5     -21.506 -11.140  -4.844  1.00  0.00    -0.343 N 
ATOM     30  O   LEU A   4     -21.970 -10.550  -2.635  1.00  0.00    -0.273 OA
ATOM     31  H   UNL     1     -21.063 -11.899  -5.407  1.00  0.00     0.164 HD
BRANCH  29  32
ATOM     32  CA  ARG A   5     -22.682 -10.497  -5.386  1.00  0.00     0.171 C 
BRANCH  32  33
ATOM     33  C   ARG A   5     -23.899 -11.195  -4.883  1.00  0.00     0.243 C 
ATOM     34  N   ASN A   6     -24.984 -10.403  -4.432  1.00  0.00    -0.341 N 
ATOM     35  O   ARG A   5     -23.966 -12.455  -4.866  1.00  0.00    -0.273 OA
ATOM     36  H   UNL     1     -24.933  -9.364  -4.553  1.00  0.00     0.164 HD
BRANCH  34  37
ATOM     37  CA  ASN A   6     -26.191 -10.995  -3.883  1.00  0.00     0.201 C 
BRANCH  37  38
ATOM     38  C   ASN A   6     -27.053 -11.522  -4.997  1.00  0.00     0.326 C 
ATOM     39  O   ASN A   6     -27.151 -10.892  -6.084  1.00  0.00    -0.250 OA
BRANCH  38  40
ATOM     40  OXT ASN A   6     -27.775 -12.697  -4.811  1.00  0.00    -0.480 OA
ATOM     41  H   UNL     1     -28.371 -13.062  -5.544  1.00  0.00     0.296 HD
ENDBRANCH  38  40
ENDBRANCH  37  38
BRANCH  37  42
ATOM     42  CB  ASN A   6     -26.930  -9.934  -3.062  1.00  0.00     0.136 C 
BRANCH  42  43
ATOM     43  CG  ASN A   6     -28.020 -10.549  -2.252  1.00  0.00     0.220 C 
ATOM     44  ND2 ASN A   6     -27.701 -11.242  -1.053  1.00  0.00    -0.370 N 
ATOM     45  OD1 ASN A   6     -29.214 -10.484  -2.642  1.00  0.00    -0.275 OA
ATOM     46  H   UNL     1     -28.456 -11.688  -0.487  1.00  0.00     0.159 HD
ATOM     47  H   UNL     1     -26.713 -11.314  -0.724  1.00  0.00     0.159 HD
ENDBRANCH  42  43
ENDBRANCH  37  42
ENDBRANCH  34  37
ENDBRANCH  32  33
BRANCH  32  48
ATOM     48  CB  ARG A   5     -22.660 -10.515  -6.914  1.00  0.00     0.037 C 
BRANCH  48  49
ATOM     49  CG  ARG A   5     -21.469  -9.724  -7.458  1.00  0.00     0.024 C 
BRANCH  49  50
ATOM     50  CD  ARG A   5     -21.605  -9.483  -8.962  1.00  0.00     0.116 C 
BRANCH  50  51
ATOM     51  NE  ARG A   5     -21.189  -8.121  -9.281  1.00  0.00    -0.357 N 
ATOM     52  CZ  ARG A   5     -20.073  -7.776 -10.102  1.00  0.00     0.185 C 
ATOM     53  NH2 ARG A   5     -19.203  -8.774 -10.627  1.00  0.00    -0.370 N 
ATOM     54  H   UNL     1     -21.774  -7.346  -8.892  1.00  0.00     0.163 HD
ATOM     55  H   UNL     1     -18.484  -8.507 -11.336  1.00  0.00     0.159 HD
ATOM     56  H   UNL     1     -19.131  -9.732 -10.226  1.00  0.00     0.159 HD
BRANCH  52  57
ATOM     57  NH1 ARG A   5     -19.841  -6.533 -10.380  1.00  0.00    -0.270 NA
ATOM     58  H   UNL     1     -20.449  -5.763 -10.021  1.00  0.00     0.191 HD
ENDBRANCH  52  57
ENDBRANCH  50  51
ENDBRANCH  49  50
ENDBRANCH  48  49
ENDBRANCH  32  48
ENDBRANCH  29  32
ENDBRANCH  27  28
BRANCH  27  59
ATOM     59  CB  LEU A   4     -19.649 -11.688  -1.537  1.00  0.00     0.038 C 
BRANCH  59  60
ATOM     60  CG  LEU A   4     -20.294 -12.953  -0.948  1.00  0.00    -0.015 C 
ATOM     61  CD1 LEU A   4     -19.611 -14.230  -1.463  1.00  0.00     0.007 C 
ATOM     62  CD2 LEU A   4     -20.194 -12.896   0.581  1.00  0.00     0.007 C 
ENDBRANCH  59  60
ENDBRANCH  27  59
ENDBRANCH   3  27
TORSDOF 26
