REMARK SMILES CC(C)C[C@H](NC(=O)[C@@H](NC(=O)[C@@H](N)CO)C(C)C)C(=O)N[C@@H](CCCCN)C(=O)N[C@@H](CCCNC(=N)N)C(=O)N[C@@H](CC(N)=O)C(=O)O
REMARK SMILES IDX 20 1 21 2 22 3 5 5 6 6 7 7 8 8 9 10 10 11 11 12 12 13 13 15
REMARK SMILES IDX 14 16 15 19 16 20 17 22 18 23 19 24 4 25 2 26 1 27 3 28
REMARK SMILES IDX 23 29 29 30 31 31 30 32 32 34 40 35 42 36 41 37 43 39 48 40
REMARK SMILES IDX 49 41 50 42 44 44 45 45 46 46 47 47 33 50 34 51 35 52 36 53
REMARK SMILES IDX 37 54 39 55 38 59 24 61 25 62 26 63 27 64 28 65
REMARK H PARENT 22 4 6 9 10 14 14 17 14 18 16 21 31 33 42 38 50 43 46 48 46 49
REMARK H PARENT 36 56 39 57 39 58 38 60 28 66 28 67
ROOT
ATOM      1  C   LEU A   3     -18.382 -10.547  -4.867  1.00  0.00     0.243 C 
ATOM      2  O   LEU A   3     -18.750 -11.406  -5.713  1.00  0.00    -0.273 OA
ATOM      3  N   LYS A   4     -18.845 -10.584  -3.521  1.00  0.00    -0.343 N 
ATOM      4  H   UNL     1     -18.584  -9.800  -2.879  1.00  0.00     0.164 HD
ENDROOT
BRANCH   1   5
ATOM      5  CA  LEU A   3     -17.448  -9.456  -5.248  1.00  0.00     0.171 C 
BRANCH   5   6
ATOM      6  N   LEU A   3     -16.208 -10.024  -5.737  1.00  0.00    -0.343 N 
ATOM      7  C   VAL A   2     -15.248 -10.551  -4.829  1.00  0.00     0.243 C 
ATOM      8  O   VAL A   2     -15.468 -10.549  -3.586  1.00  0.00    -0.273 OA
ATOM      9  H   UNL     1     -16.028 -10.075  -6.766  1.00  0.00     0.164 HD
BRANCH   7  10
ATOM     10  CA  VAL A   2     -13.969 -11.092  -5.375  1.00  0.00     0.173 C 
BRANCH  10  11
ATOM     11  N   VAL A   2     -12.841 -10.490  -4.677  1.00  0.00    -0.343 N 
ATOM     12  C   SER A   1     -12.600  -9.084  -4.713  1.00  0.00     0.239 C 
ATOM     13  O   SER A   1     -13.369  -8.317  -5.356  1.00  0.00    -0.273 OA
ATOM     14  H   UNL     1     -12.148 -11.092  -4.179  1.00  0.00     0.164 HD
BRANCH  12  15
ATOM     15  CA  SER A   1     -11.441  -8.534  -3.935  1.00  0.00     0.167 C 
BRANCH  15  16
ATOM     16  N   SER A   1     -10.856  -7.387  -4.630  1.00  0.00    -0.318 NA
ATOM     17  H   UNL     1     -11.542  -6.599  -4.687  1.00  0.00     0.119 HD
ATOM     18  H   UNL     1     -10.020  -7.054  -4.097  1.00  0.00     0.119 HD
ENDBRANCH  15  16
BRANCH  15  19
ATOM     19  CB  SER A   1     -11.848  -8.202  -2.483  1.00  0.00     0.184 C 
BRANCH  19  20
ATOM     20  OG  SER A   1     -12.062  -6.825  -2.310  1.00  0.00    -0.394 OA
ATOM     21  H   UNL     1     -11.200  -6.428  -2.016  1.00  0.00     0.210 HD
ENDBRANCH  19  20
ENDBRANCH  15  19
ENDBRANCH  12  15
ENDBRANCH  10  11
BRANCH  10  22
ATOM     22  CB  VAL A   2     -13.962 -12.640  -5.320  1.00  0.00     0.015 C 
ATOM     23  CG1 VAL A   2     -12.837 -13.217  -6.182  1.00  0.00     0.010 C 
ATOM     24  CG2 VAL A   2     -13.915 -13.242  -3.902  1.00  0.00     0.010 C 
ENDBRANCH  10  22
ENDBRANCH   7  10
ENDBRANCH   5   6
BRANCH   5  25
ATOM     25  CB  LEU A   3     -18.095  -8.526  -6.280  1.00  0.00     0.038 C 
BRANCH  25  26
ATOM     26  CG  LEU A   3     -17.542  -7.090  -6.224  1.00  0.00    -0.015 C 
ATOM     27  CD1 LEU A   3     -18.188  -6.262  -7.337  1.00  0.00     0.007 C 
ATOM     28  CD2 LEU A   3     -17.814  -6.424  -4.860  1.00  0.00     0.007 C 
ENDBRANCH  25  26
ENDBRANCH   5  25
ENDBRANCH   1   5
BRANCH   3  29
ATOM     29  CA  LYS A   4     -19.820 -11.545  -3.051  1.00  0.00     0.171 C 
BRANCH  29  30
ATOM     30  C   LYS A   4     -21.171 -11.058  -3.463  1.00  0.00     0.243 C 
ATOM     31  N   ARG A   5     -21.505 -11.140  -4.842  1.00  0.00    -0.343 N 
ATOM     32  O   LYS A   4     -21.973 -10.546  -2.635  1.00  0.00    -0.273 OA
ATOM     33  H   UNL     1     -21.063 -11.902  -5.403  1.00  0.00     0.164 HD
BRANCH  31  34
ATOM     34  CA  ARG A   5     -22.679 -10.497  -5.388  1.00  0.00     0.171 C 
BRANCH  34  35
ATOM     35  C   ARG A   5     -23.898 -11.194  -4.886  1.00  0.00     0.243 C 
ATOM     36  N   ASN A   6     -24.982 -10.402  -4.433  1.00  0.00    -0.341 N 
ATOM     37  O   ARG A   5     -23.966 -12.455  -4.868  1.00  0.00    -0.273 OA
ATOM     38  H   UNL     1     -24.931  -9.364  -4.552  1.00  0.00     0.164 HD
BRANCH  36  39
ATOM     39  CA  ASN A   6     -26.189 -10.994  -3.883  1.00  0.00     0.201 C 
BRANCH  39  40
ATOM     40  C   ASN A   6     -27.053 -11.522  -4.997  1.00  0.00     0.326 C 
ATOM     41  O   ASN A   6     -27.151 -10.892  -6.084  1.00  0.00    -0.250 OA
BRANCH  40  42
ATOM     42  OXT ASN A   6     -27.773 -12.698  -4.811  1.00  0.00    -0.480 OA
ATOM     43  H   UNL     1     -28.370 -13.063  -5.543  1.00  0.00     0.296 HD
ENDBRANCH  40  42
ENDBRANCH  39  40
BRANCH  39  44
ATOM     44  CB  ASN A   6     -26.930  -9.934  -3.062  1.00  0.00     0.136 C 
BRANCH  44  45
ATOM     45  CG  ASN A   6     -28.019 -10.549  -2.252  1.00  0.00     0.220 C 
ATOM     46  ND2 ASN A   6     -27.701 -11.241  -1.053  1.00  0.00    -0.370 N 
ATOM     47  OD1 ASN A   6     -29.213 -10.484  -2.642  1.00  0.00    -0.275 OA
ATOM     48  H   UNL     1     -28.456 -11.688  -0.487  1.00  0.00     0.159 HD
ATOM     49  H   UNL     1     -26.713 -11.314  -0.724  1.00  0.00     0.159 HD
ENDBRANCH  44  45
ENDBRANCH  39  44
ENDBRANCH  36  39
ENDBRANCH  34  35
BRANCH  34  50
ATOM     50  CB  ARG A   5     -22.649 -10.518  -6.916  1.00  0.00     0.037 C 
BRANCH  50  51
ATOM     51  CG  ARG A   5     -21.462  -9.717  -7.459  1.00  0.00     0.024 C 
BRANCH  51  52
ATOM     52  CD  ARG A   5     -21.602  -9.477  -8.963  1.00  0.00     0.116 C 
BRANCH  52  53
ATOM     53  NE  ARG A   5     -21.186  -8.116  -9.283  1.00  0.00    -0.357 N 
ATOM     54  CZ  ARG A   5     -20.072  -7.777 -10.106  1.00  0.00     0.185 C 
ATOM     55  NH2 ARG A   5     -19.198  -8.780 -10.616  1.00  0.00    -0.370 N 
ATOM     56  H   UNL     1     -21.765  -7.335  -8.899  1.00  0.00     0.163 HD
ATOM     57  H   UNL     1     -19.093  -9.712 -10.162  1.00  0.00     0.159 HD
ATOM     58  H   UNL     1     -18.499  -8.537 -11.353  1.00  0.00     0.159 HD
BRANCH  54  59
ATOM     59  NH1 ARG A   5     -19.856  -6.532 -10.387  1.00  0.00    -0.270 NA
ATOM     60  H   UNL     1     -19.051  -6.233 -10.981  1.00  0.00     0.191 HD
ENDBRANCH  54  59
ENDBRANCH  52  53
ENDBRANCH  51  52
ENDBRANCH  50  51
ENDBRANCH  34  50
ENDBRANCH  31  34
ENDBRANCH  29  30
BRANCH  29  61
ATOM     61  CB  LYS A   4     -19.665 -11.701  -1.529  1.00  0.00     0.035 C 
BRANCH  61  62
ATOM     62  CG  LYS A   4     -20.320 -12.967  -0.970  1.00  0.00     0.004 C 
BRANCH  62  63
ATOM     63  CD  LYS A   4     -19.606 -14.244  -1.441  1.00  0.00     0.015 C 
BRANCH  63  64
ATOM     64  CE  LYS A   4     -20.082 -15.461  -0.642  1.00  0.00     0.077 C 
BRANCH  64  65
ATOM     65  NZ  LYS A   4     -19.399 -16.665  -1.104  1.00  0.00    -0.330 NA
ATOM     66  H   UNL     1     -19.754 -16.896  -2.060  1.00  0.00     0.118 HD
ATOM     67  H   UNL     1     -19.689 -17.454  -0.482  1.00  0.00     0.118 HD
ENDBRANCH  64  65
ENDBRANCH  63  64
ENDBRANCH  62  63
ENDBRANCH  61  62
ENDBRANCH  29  61
ENDBRANCH   3  29
TORSDOF 30
