REMARK SMILES CC(C)[C@H](NC(=O)[C@H](Cc1ccccc1)NC(=O)[C@@H](N)CO)C(=O)N[C@@H](CC(N)=O)C(=O)N[C@@H](CCCNC(=N)N)C(=O)N[C@@H](CC(N)=O)C(=O)O
REMARK SMILES IDX 23 1 24 2 25 3 4 5 5 6 6 7 7 8 8 10 16 11 17 12 18 13 19 15
REMARK SMILES IDX 20 16 21 19 22 20 9 22 10 23 11 24 15 25 12 26 14 27 13 28
REMARK SMILES IDX 2 29 1 30 3 31 26 32 31 33 33 34 32 35 34 37 42 38 44 39
REMARK SMILES IDX 43 40 45 42 50 43 51 44 52 45 46 47 47 48 48 49 49 50 35 53
REMARK SMILES IDX 36 54 37 55 38 56 39 57 41 58 40 62 27 64 28 65 29 66 30 67
REMARK H PARENT 25 4 5 9 16 14 20 17 20 18 22 21 33 36 44 41 52 46 48 51 48 52
REMARK H PARENT 38 59 41 60 41 61 40 63 29 68 29 69
ROOT
ATOM      1  C   VAL A   3     -18.374 -10.549  -4.844  1.00  0.00     0.243 C 
ATOM      2  O   VAL A   3     -18.739 -11.394  -5.707  1.00  0.00    -0.273 OA
ATOM      3  N   ASN A   4     -18.836 -10.610  -3.501  1.00  0.00    -0.342 N 
ATOM      4  H   UNL     1     -18.557  -9.844  -2.845  1.00  0.00     0.164 HD
ENDROOT
BRANCH   1   5
ATOM      5  CA  VAL A   3     -17.466  -9.422  -5.207  1.00  0.00     0.174 C 
BRANCH   5   6
ATOM      6  N   VAL A   3     -16.227  -9.970  -5.728  1.00  0.00    -0.342 N 
ATOM      7  C   PHE A   2     -15.263 -10.535  -4.836  1.00  0.00     0.243 C 
ATOM      8  O   PHE A   2     -15.479 -10.579  -3.593  1.00  0.00    -0.273 OA
ATOM      9  H   UNL     1     -16.061  -9.979  -6.760  1.00  0.00     0.164 HD
BRANCH   7  10
ATOM     10  CA  PHE A   2     -13.984 -11.055  -5.395  1.00  0.00     0.175 C 
BRANCH  10  11
ATOM     11  N   PHE A   2     -12.862 -10.480  -4.670  1.00  0.00    -0.343 N 
ATOM     12  C   SER A   1     -12.602  -9.078  -4.709  1.00  0.00     0.239 C 
ATOM     13  O   SER A   1     -13.361  -8.306  -5.357  1.00  0.00    -0.273 OA
ATOM     14  H   UNL     1     -12.228 -11.100  -4.115  1.00  0.00     0.164 HD
BRANCH  12  15
ATOM     15  CA  SER A   1     -11.440  -8.537  -3.931  1.00  0.00     0.167 C 
BRANCH  15  16
ATOM     16  N   SER A   1     -10.850  -7.390  -4.623  1.00  0.00    -0.318 NA
ATOM     17  H   UNL     1     -10.029  -7.047  -4.071  1.00  0.00     0.119 HD
ATOM     18  H   UNL     1     -11.539  -6.606  -4.694  1.00  0.00     0.119 HD
ENDBRANCH  15  16
BRANCH  15  19
ATOM     19  CB  SER A   1     -11.843  -8.204  -2.480  1.00  0.00     0.184 C 
BRANCH  19  20
ATOM     20  OG  SER A   1     -12.063  -6.829  -2.319  1.00  0.00    -0.394 OA
ATOM     21  H   UNL     1     -12.319  -6.699  -1.369  1.00  0.00     0.210 HD
ENDBRANCH  19  20
ENDBRANCH  15  19
ENDBRANCH  12  15
ENDBRANCH  10  11
BRANCH  10  22
ATOM     22  CB  PHE A   2     -13.971 -12.592  -5.333  1.00  0.00     0.070 C 
BRANCH  22  23
ATOM     23  CG  PHE A   2     -12.885 -13.197  -6.186  1.00  0.00    -0.045 A 
ATOM     24  CD1 PHE A   2     -12.722 -12.806  -7.528  1.00  0.00     0.004 A 
ATOM     25  CD2 PHE A   2     -12.094 -14.241  -5.682  1.00  0.00     0.004 A 
ATOM     26  CE1 PHE A   2     -11.746 -13.399  -8.324  1.00  0.00     0.000 A 
ATOM     27  CE2 PHE A   2     -11.135 -14.852  -6.494  1.00  0.00     0.000 A 
ATOM     28  CZ  PHE A   2     -10.955 -14.424  -7.810  1.00  0.00     0.000 A 
ENDBRANCH  22  23
ENDBRANCH  10  22
ENDBRANCH   7  10
ENDBRANCH   5   6
BRANCH   5  29
ATOM     29  CB  VAL A   3     -18.162  -8.422  -6.159  1.00  0.00     0.015 C 
ATOM     30  CG1 VAL A   3     -17.334  -7.152  -6.346  1.00  0.00     0.010 C 
ATOM     31  CG2 VAL A   3     -19.487  -7.934  -5.528  1.00  0.00     0.010 C 
ENDBRANCH   5  29
ENDBRANCH   1   5
BRANCH   3  32
ATOM     32  CA  ASN A   4     -19.823 -11.565  -3.036  1.00  0.00     0.180 C 
BRANCH  32  33
ATOM     33  C   ASN A   4     -21.170 -11.066  -3.459  1.00  0.00     0.243 C 
ATOM     34  N   ARG A   5     -21.503 -11.145  -4.840  1.00  0.00    -0.343 N 
ATOM     35  O   ASN A   4     -21.971 -10.546  -2.634  1.00  0.00    -0.273 OA
ATOM     36  H   UNL     1     -21.047 -11.897  -5.404  1.00  0.00     0.164 HD
BRANCH  34  37
ATOM     37  CA  ARG A   5     -22.680 -10.508  -5.393  1.00  0.00     0.171 C 
BRANCH  37  38
ATOM     38  C   ARG A   5     -23.897 -11.200  -4.885  1.00  0.00     0.243 C 
ATOM     39  N   ASN A   6     -24.980 -10.405  -4.432  1.00  0.00    -0.341 N 
ATOM     40  O   ARG A   5     -23.968 -12.460  -4.865  1.00  0.00    -0.273 OA
ATOM     41  H   UNL     1     -24.927  -9.366  -4.551  1.00  0.00     0.164 HD
BRANCH  39  42
ATOM     42  CA  ASN A   6     -26.189 -10.995  -3.883  1.00  0.00     0.201 C 
BRANCH  42  43
ATOM     43  C   ASN A   6     -27.052 -11.522  -4.997  1.00  0.00     0.326 C 
ATOM     44  O   ASN A   6     -27.151 -10.892  -6.084  1.00  0.00    -0.250 OA
BRANCH  43  45
ATOM     45  OXT ASN A   6     -27.773 -12.698  -4.811  1.00  0.00    -0.480 OA
ATOM     46  H   UNL     1     -28.370 -13.062  -5.544  1.00  0.00     0.296 HD
ENDBRANCH  43  45
ENDBRANCH  42  43
BRANCH  42  47
ATOM     47  CB  ASN A   6     -26.929  -9.934  -3.062  1.00  0.00     0.136 C 
BRANCH  47  48
ATOM     48  CG  ASN A   6     -28.019 -10.549  -2.252  1.00  0.00     0.220 C 
ATOM     49  ND2 ASN A   6     -27.701 -11.241  -1.053  1.00  0.00    -0.370 N 
ATOM     50  OD1 ASN A   6     -29.213 -10.483  -2.643  1.00  0.00    -0.275 OA
ATOM     51  H   UNL     1     -28.456 -11.688  -0.487  1.00  0.00     0.159 HD
ATOM     52  H   UNL     1     -26.713 -11.314  -0.724  1.00  0.00     0.159 HD
ENDBRANCH  47  48
ENDBRANCH  42  47
ENDBRANCH  39  42
ENDBRANCH  37  38
BRANCH  37  53
ATOM     53  CB  ARG A   5     -22.651 -10.549  -6.925  1.00  0.00     0.037 C 
BRANCH  53  54
ATOM     54  CG  ARG A   5     -21.506  -9.699  -7.471  1.00  0.00     0.024 C 
BRANCH  54  55
ATOM     55  CD  ARG A   5     -21.611  -9.491  -8.978  1.00  0.00     0.116 C 
BRANCH  55  56
ATOM     56  NE  ARG A   5     -21.202  -8.127  -9.304  1.00  0.00    -0.357 N 
ATOM     57  CZ  ARG A   5     -20.072  -7.779 -10.104  1.00  0.00     0.185 C 
ATOM     58  NH2 ARG A   5     -19.195  -8.776 -10.617  1.00  0.00    -0.370 N 
ATOM     59  H   UNL     1     -21.805  -7.353  -8.942  1.00  0.00     0.163 HD
ATOM     60  H   UNL     1     -19.104  -9.720 -10.188  1.00  0.00     0.159 HD
ATOM     61  H   UNL     1     -18.479  -8.513 -11.330  1.00  0.00     0.159 HD
BRANCH  57  62
ATOM     62  NH1 ARG A   5     -19.841  -6.535 -10.381  1.00  0.00    -0.270 NA
ATOM     63  H   UNL     1     -20.456  -5.766 -10.032  1.00  0.00     0.191 HD
ENDBRANCH  57  62
ENDBRANCH  55  56
ENDBRANCH  54  55
ENDBRANCH  53  54
ENDBRANCH  37  53
ENDBRANCH  34  37
ENDBRANCH  32  33
BRANCH  32  64
ATOM     64  CB  ASN A   4     -19.675 -11.715  -1.512  1.00  0.00     0.134 C 
BRANCH  64  65
ATOM     65  CG  ASN A   4     -20.341 -12.950  -0.989  1.00  0.00     0.220 C 
ATOM     66  ND2 ASN A   4     -19.705 -14.222  -1.112  1.00  0.00    -0.370 N 
ATOM     67  OD1 ASN A   4     -21.486 -12.871  -0.468  1.00  0.00    -0.275 OA
ATOM     68  H   UNL     1     -20.178 -15.083  -0.760  1.00  0.00     0.159 HD
ATOM     69  H   UNL     1     -18.766 -14.306  -1.561  1.00  0.00     0.159 HD
ENDBRANCH  64  65
ENDBRANCH  32  64
ENDBRANCH   3  32
TORSDOF 27
