REMARK SMILES C[C@H](NC(=O)[C@H](Cc1ccccc1)NC(=O)[C@@H](N)CO)C(=O)N[C@@H](Cc1ccc(O)cc1)C(=O)N[C@@H](CCCNC(=N)N)C(=O)N[C@@H](CC(N)=O)C(=O)O
REMARK SMILES IDX 21 1 22 2 23 3 2 5 1 6 3 7 4 8 5 9 6 11 14 12 15 13 16 14
REMARK SMILES IDX 17 16 18 17 19 20 20 21 7 23 8 24 9 25 13 26 10 27 12 28
REMARK SMILES IDX 11 29 24 30 33 31 35 32 34 33 36 35 44 36 46 37 45 38 47 40
REMARK SMILES IDX 52 41 53 42 54 43 48 45 49 46 50 47 51 48 37 51 38 52 39 53
REMARK SMILES IDX 40 54 41 55 43 56 42 60 25 62 26 63 27 64 32 65 28 66 31 67
REMARK SMILES IDX 29 68 30 69
REMARK H PARENT 23 4 3 10 14 15 18 18 18 19 20 22 35 34 46 39 54 44 50 49
REMARK H PARENT 50 50 40 57 43 58 43 59 42 61 30 70
ROOT
ATOM      1  C   ALA A   3     -18.397 -10.525  -4.868  1.00  0.00     0.242 C 
ATOM      2  O   ALA A   3     -18.757 -11.392  -5.711  1.00  0.00    -0.273 OA
ATOM      3  N   TYR A   4     -18.833 -10.589  -3.514  1.00  0.00    -0.342 N 
ATOM      4  H   UNL     1     -18.522  -9.836  -2.857  1.00  0.00     0.164 HD
ENDROOT
BRANCH   1   5
ATOM      5  CA  ALA A   3     -17.460  -9.430  -5.258  1.00  0.00     0.168 C 
ATOM      6  CB  ALA A   3     -18.073  -8.538  -6.330  1.00  0.00     0.041 C 
BRANCH   5   7
ATOM      7  N   ALA A   3     -16.219 -10.011  -5.728  1.00  0.00    -0.343 N 
ATOM      8  C   PHE A   2     -15.258 -10.543  -4.823  1.00  0.00     0.243 C 
ATOM      9  O   PHE A   2     -15.481 -10.572  -3.582  1.00  0.00    -0.273 OA
ATOM     10  H   UNL     1     -16.038 -10.064  -6.757  1.00  0.00     0.164 HD
BRANCH   8  11
ATOM     11  CA  PHE A   2     -13.978 -11.060  -5.381  1.00  0.00     0.175 C 
BRANCH  11  12
ATOM     12  N   PHE A   2     -12.857 -10.483  -4.659  1.00  0.00    -0.343 N 
ATOM     13  C   SER A   1     -12.599  -9.080  -4.706  1.00  0.00     0.239 C 
ATOM     14  O   SER A   1     -13.359  -8.310  -5.356  1.00  0.00    -0.273 OA
ATOM     15  H   UNL     1     -12.223 -11.100  -4.102  1.00  0.00     0.164 HD
BRANCH  13  16
ATOM     16  CA  SER A   1     -11.438  -8.536  -3.930  1.00  0.00     0.167 C 
BRANCH  16  17
ATOM     17  N   SER A   1     -10.850  -7.388  -4.623  1.00  0.00    -0.318 NA
ATOM     18  H   UNL     1     -11.541  -6.606  -4.694  1.00  0.00     0.119 HD
ATOM     19  H   UNL     1     -10.030  -7.044  -4.072  1.00  0.00     0.119 HD
ENDBRANCH  16  17
BRANCH  16  20
ATOM     20  CB  SER A   1     -11.841  -8.203  -2.479  1.00  0.00     0.184 C 
BRANCH  20  21
ATOM     21  OG  SER A   1     -12.063  -6.828  -2.319  1.00  0.00    -0.394 OA
ATOM     22  H   UNL     1     -12.319  -6.697  -1.369  1.00  0.00     0.210 HD
ENDBRANCH  20  21
ENDBRANCH  16  20
ENDBRANCH  13  16
ENDBRANCH  11  12
BRANCH  11  23
ATOM     23  CB  PHE A   2     -13.965 -12.596  -5.325  1.00  0.00     0.070 C 
BRANCH  23  24
ATOM     24  CG  PHE A   2     -12.883 -13.199  -6.183  1.00  0.00    -0.045 A 
ATOM     25  CD1 PHE A   2     -12.723 -12.806  -7.526  1.00  0.00     0.004 A 
ATOM     26  CD2 PHE A   2     -12.092 -14.244  -5.682  1.00  0.00     0.004 A 
ATOM     27  CE1 PHE A   2     -11.747 -13.399  -8.324  1.00  0.00     0.000 A 
ATOM     28  CE2 PHE A   2     -11.133 -14.853  -6.495  1.00  0.00     0.000 A 
ATOM     29  CZ  PHE A   2     -10.955 -14.424  -7.811  1.00  0.00     0.000 A 
ENDBRANCH  23  24
ENDBRANCH  11  23
ENDBRANCH   8  11
ENDBRANCH   5   7
ENDBRANCH   1   5
BRANCH   3  30
ATOM     30  CA  TYR A   4     -19.815 -11.550  -3.041  1.00  0.00     0.175 C 
BRANCH  30  31
ATOM     31  C   TYR A   4     -21.166 -11.061  -3.459  1.00  0.00     0.243 C 
ATOM     32  N   ARG A   5     -21.502 -11.144  -4.839  1.00  0.00    -0.343 N 
ATOM     33  O   TYR A   4     -21.968 -10.543  -2.634  1.00  0.00    -0.273 OA
ATOM     34  H   UNL     1     -21.065 -11.910  -5.397  1.00  0.00     0.164 HD
BRANCH  32  35
ATOM     35  CA  ARG A   5     -22.676 -10.498  -5.384  1.00  0.00     0.171 C 
BRANCH  35  36
ATOM     36  C   ARG A   5     -23.896 -11.195  -4.884  1.00  0.00     0.243 C 
ATOM     37  N   ASN A   6     -24.981 -10.402  -4.433  1.00  0.00    -0.341 N 
ATOM     38  O   ARG A   5     -23.965 -12.455  -4.867  1.00  0.00    -0.273 OA
ATOM     39  H   UNL     1     -24.930  -9.364  -4.552  1.00  0.00     0.164 HD
BRANCH  37  40
ATOM     40  CA  ASN A   6     -26.189 -10.994  -3.883  1.00  0.00     0.201 C 
BRANCH  40  41
ATOM     41  C   ASN A   6     -27.052 -11.522  -4.997  1.00  0.00     0.326 C 
ATOM     42  O   ASN A   6     -27.151 -10.892  -6.084  1.00  0.00    -0.250 OA
BRANCH  41  43
ATOM     43  OXT ASN A   6     -27.772 -12.698  -4.811  1.00  0.00    -0.480 OA
ATOM     44  H   UNL     1     -28.369 -13.063  -5.543  1.00  0.00     0.296 HD
ENDBRANCH  41  43
ENDBRANCH  40  41
BRANCH  40  45
ATOM     45  CB  ASN A   6     -26.929  -9.934  -3.062  1.00  0.00     0.136 C 
BRANCH  45  46
ATOM     46  CG  ASN A   6     -28.019 -10.549  -2.252  1.00  0.00     0.220 C 
ATOM     47  ND2 ASN A   6     -27.701 -11.242  -1.053  1.00  0.00    -0.370 N 
ATOM     48  OD1 ASN A   6     -29.213 -10.484  -2.642  1.00  0.00    -0.275 OA
ATOM     49  H   UNL     1     -28.456 -11.688  -0.487  1.00  0.00     0.159 HD
ATOM     50  H   UNL     1     -26.712 -11.315  -0.725  1.00  0.00     0.159 HD
ENDBRANCH  45  46
ENDBRANCH  40  45
ENDBRANCH  37  40
ENDBRANCH  35  36
BRANCH  35  51
ATOM     51  CB  ARG A   5     -22.648 -10.516  -6.913  1.00  0.00     0.037 C 
BRANCH  51  52
ATOM     52  CG  ARG A   5     -21.455  -9.724  -7.458  1.00  0.00     0.024 C 
BRANCH  52  53
ATOM     53  CD  ARG A   5     -21.601  -9.480  -8.961  1.00  0.00     0.116 C 
BRANCH  53  54
ATOM     54  NE  ARG A   5     -21.189  -8.118  -9.280  1.00  0.00    -0.357 N 
ATOM     55  CZ  ARG A   5     -20.072  -7.775 -10.101  1.00  0.00     0.185 C 
ATOM     56  NH2 ARG A   5     -19.201  -8.775 -10.617  1.00  0.00    -0.370 N 
ATOM     57  H   UNL     1     -21.775  -7.343  -8.891  1.00  0.00     0.163 HD
ATOM     58  H   UNL     1     -18.495  -8.517 -11.343  1.00  0.00     0.159 HD
ATOM     59  H   UNL     1     -19.101  -9.714 -10.178  1.00  0.00     0.159 HD
BRANCH  55  60
ATOM     60  NH1 ARG A   5     -19.843  -6.533 -10.385  1.00  0.00    -0.270 NA
ATOM     61  H   UNL     1     -20.452  -5.762 -10.031  1.00  0.00     0.191 HD
ENDBRANCH  55  60
ENDBRANCH  53  54
ENDBRANCH  52  53
ENDBRANCH  51  52
ENDBRANCH  35  51
ENDBRANCH  32  35
ENDBRANCH  30  31
BRANCH  30  62
ATOM     62  CB  TYR A   4     -19.666 -11.705  -1.516  1.00  0.00     0.070 C 
BRANCH  62  63
ATOM     63  CG  TYR A   4     -20.335 -12.947  -0.989  1.00  0.00    -0.045 A 
ATOM     64  CD1 TYR A   4     -21.598 -12.872  -0.378  1.00  0.00     0.007 A 
ATOM     65  CD2 TYR A   4     -19.721 -14.201  -1.146  1.00  0.00     0.007 A 
ATOM     66  CE1 TYR A   4     -22.231 -14.033   0.077  1.00  0.00     0.046 A 
ATOM     67  CE2 TYR A   4     -20.356 -15.360  -0.689  1.00  0.00     0.046 A 
ATOM     68  CZ  TYR A   4     -21.613 -15.278  -0.075  1.00  0.00     0.115 A 
BRANCH  68  69
ATOM     69  OH  TYR A   4     -22.256 -16.426   0.383  1.00  0.00    -0.508 OA
ATOM     70  H   UNL     1     -21.835 -17.342   0.287  1.00  0.00     0.293 HD
ENDBRANCH  68  69
ENDBRANCH  62  63
ENDBRANCH  30  62
ENDBRANCH   3  30
TORSDOF 27
