REMARK SMILES CC(C)C[C@H](NC(=O)[C@H](Cc1ccccc1)NC(=O)[C@@H](N)CO)C(=O)N[C@@H](Cc1c[nH]cn1)C(=O)N[C@@H](CCCNC(=N)N)C(=O)N[C@@H](CC(N)=O)C(=O)O
REMARK SMILES IDX 24 1 25 2 26 3 5 5 6 6 7 7 8 8 9 10 17 11 18 12 19 13 20 15
REMARK SMILES IDX 21 16 22 19 23 20 10 22 11 23 12 24 16 25 13 26 15 27 14 28
REMARK SMILES IDX 4 29 2 30 1 31 3 32 27 33 34 34 36 35 35 36 37 38 45 39
REMARK SMILES IDX 47 40 46 41 48 43 53 44 54 45 55 46 49 48 50 49 51 50 52 51
REMARK SMILES IDX 38 54 39 55 40 56 41 57 42 58 44 59 43 63 28 65 29 66 33 67
REMARK SMILES IDX 30 68 32 69 31 70
REMARK H PARENT 26 4 6 9 17 14 21 17 21 18 23 21 36 37 47 42 55 47 51 52 51 53
REMARK H PARENT 41 60 44 61 44 62 43 64 31 71
ROOT
ATOM      1  C   LEU A   3     -18.388 -10.553  -4.862  1.00  0.00     0.243 C 
ATOM      2  O   LEU A   3     -18.755 -11.408  -5.712  1.00  0.00    -0.273 OA
ATOM      3  N   HIS A   4     -18.839 -10.607  -3.512  1.00  0.00    -0.342 N 
ATOM      4  H   UNL     1     -18.552  -9.841  -2.859  1.00  0.00     0.164 HD
ENDROOT
BRANCH   1   5
ATOM      5  CA  LEU A   3     -17.456  -9.457  -5.240  1.00  0.00     0.171 C 
BRANCH   5   6
ATOM      6  N   LEU A   3     -16.217 -10.021  -5.729  1.00  0.00    -0.343 N 
ATOM      7  C   PHE A   2     -15.252 -10.548  -4.826  1.00  0.00     0.243 C 
ATOM      8  O   PHE A   2     -15.472 -10.577  -3.583  1.00  0.00    -0.273 OA
ATOM      9  H   UNL     1     -16.041 -10.071  -6.758  1.00  0.00     0.164 HD
BRANCH   7  10
ATOM     10  CA  PHE A   2     -13.974 -11.062  -5.384  1.00  0.00     0.175 C 
BRANCH  10  11
ATOM     11  N   PHE A   2     -12.854 -10.484  -4.661  1.00  0.00    -0.343 N 
ATOM     12  C   SER A   1     -12.597  -9.081  -4.707  1.00  0.00     0.239 C 
ATOM     13  O   SER A   1     -13.359  -8.311  -5.356  1.00  0.00    -0.273 OA
ATOM     14  H   UNL     1     -12.220 -11.101  -4.104  1.00  0.00     0.164 HD
BRANCH  12  15
ATOM     15  CA  SER A   1     -11.437  -8.536  -3.931  1.00  0.00     0.167 C 
BRANCH  15  16
ATOM     16  N   SER A   1     -10.850  -7.390  -4.628  1.00  0.00    -0.318 NA
ATOM     17  H   UNL     1     -10.013  -7.060  -4.095  1.00  0.00     0.119 HD
ATOM     18  H   UNL     1     -11.534  -6.600  -4.684  1.00  0.00     0.119 HD
ENDBRANCH  15  16
BRANCH  15  19
ATOM     19  CB  SER A   1     -11.844  -8.201  -2.480  1.00  0.00     0.184 C 
BRANCH  19  20
ATOM     20  OG  SER A   1     -12.062  -6.825  -2.310  1.00  0.00    -0.394 OA
ATOM     21  H   UNL     1     -11.202  -6.425  -2.018  1.00  0.00     0.210 HD
ENDBRANCH  19  20
ENDBRANCH  15  19
ENDBRANCH  12  15
ENDBRANCH  10  11
BRANCH  10  22
ATOM     22  CB  PHE A   2     -13.963 -12.597  -5.326  1.00  0.00     0.070 C 
BRANCH  22  23
ATOM     23  CG  PHE A   2     -12.882 -13.200  -6.184  1.00  0.00    -0.045 A 
ATOM     24  CD1 PHE A   2     -12.722 -12.808  -7.527  1.00  0.00     0.004 A 
ATOM     25  CD2 PHE A   2     -12.090 -14.244  -5.683  1.00  0.00     0.004 A 
ATOM     26  CE1 PHE A   2     -11.747 -13.400  -8.324  1.00  0.00     0.000 A 
ATOM     27  CE2 PHE A   2     -11.132 -14.854  -6.496  1.00  0.00     0.000 A 
ATOM     28  CZ  PHE A   2     -10.954 -14.425  -7.812  1.00  0.00     0.000 A 
ENDBRANCH  22  23
ENDBRANCH  10  22
ENDBRANCH   7  10
ENDBRANCH   5   6
BRANCH   5  29
ATOM     29  CB  LEU A   3     -18.102  -8.527  -6.273  1.00  0.00     0.038 C 
BRANCH  29  30
ATOM     30  CG  LEU A   3     -17.543  -7.092  -6.222  1.00  0.00    -0.015 C 
ATOM     31  CD1 LEU A   3     -18.188  -6.264  -7.337  1.00  0.00     0.007 C 
ATOM     32  CD2 LEU A   3     -17.812  -6.423  -4.860  1.00  0.00     0.007 C 
ENDBRANCH  29  30
ENDBRANCH   5  29
ENDBRANCH   1   5
BRANCH   3  33
ATOM     33  CA  HIS A   4     -19.822 -11.562  -3.038  1.00  0.00     0.177 C 
BRANCH  33  34
ATOM     34  C   HIS A   4     -21.170 -11.065  -3.458  1.00  0.00     0.243 C 
ATOM     35  N   ARG A   5     -21.502 -11.143  -4.839  1.00  0.00    -0.343 N 
ATOM     36  O   HIS A   4     -21.970 -10.545  -2.633  1.00  0.00    -0.273 OA
ATOM     37  H   UNL     1     -21.064 -11.908  -5.398  1.00  0.00     0.164 HD
BRANCH  35  38
ATOM     38  CA  ARG A   5     -22.677 -10.498  -5.385  1.00  0.00     0.171 C 
BRANCH  38  39
ATOM     39  C   ARG A   5     -23.896 -11.195  -4.885  1.00  0.00     0.243 C 
ATOM     40  N   ASN A   6     -24.981 -10.402  -4.433  1.00  0.00    -0.341 N 
ATOM     41  O   ARG A   5     -23.965 -12.455  -4.867  1.00  0.00    -0.273 OA
ATOM     42  H   UNL     1     -24.930  -9.364  -4.552  1.00  0.00     0.164 HD
BRANCH  40  43
ATOM     43  CA  ASN A   6     -26.189 -10.994  -3.883  1.00  0.00     0.201 C 
BRANCH  43  44
ATOM     44  C   ASN A   6     -27.052 -11.522  -4.997  1.00  0.00     0.326 C 
ATOM     45  O   ASN A   6     -27.151 -10.892  -6.084  1.00  0.00    -0.250 OA
BRANCH  44  46
ATOM     46  OXT ASN A   6     -27.772 -12.698  -4.811  1.00  0.00    -0.480 OA
ATOM     47  H   UNL     1     -28.369 -13.063  -5.543  1.00  0.00     0.296 HD
ENDBRANCH  44  46
ENDBRANCH  43  44
BRANCH  43  48
ATOM     48  CB  ASN A   6     -26.929  -9.934  -3.062  1.00  0.00     0.136 C 
BRANCH  48  49
ATOM     49  CG  ASN A   6     -28.019 -10.549  -2.252  1.00  0.00     0.220 C 
ATOM     50  ND2 ASN A   6     -27.701 -11.242  -1.053  1.00  0.00    -0.370 N 
ATOM     51  OD1 ASN A   6     -29.213 -10.483  -2.643  1.00  0.00    -0.275 OA
ATOM     52  H   UNL     1     -28.456 -11.688  -0.487  1.00  0.00     0.159 HD
ATOM     53  H   UNL     1     -26.712 -11.315  -0.725  1.00  0.00     0.159 HD
ENDBRANCH  48  49
ENDBRANCH  43  48
ENDBRANCH  40  43
ENDBRANCH  38  39
BRANCH  38  54
ATOM     54  CB  ARG A   5     -22.647 -10.519  -6.914  1.00  0.00     0.037 C 
BRANCH  54  55
ATOM     55  CG  ARG A   5     -21.461  -9.717  -7.458  1.00  0.00     0.024 C 
BRANCH  55  56
ATOM     56  CD  ARG A   5     -21.602  -9.477  -8.962  1.00  0.00     0.116 C 
BRANCH  56  57
ATOM     57  NE  ARG A   5     -21.186  -8.116  -9.283  1.00  0.00    -0.357 N 
ATOM     58  CZ  ARG A   5     -20.073  -7.777 -10.106  1.00  0.00     0.185 C 
ATOM     59  NH2 ARG A   5     -19.198  -8.780 -10.616  1.00  0.00    -0.370 N 
ATOM     60  H   UNL     1     -21.765  -7.335  -8.899  1.00  0.00     0.163 HD
ATOM     61  H   UNL     1     -19.093  -9.712 -10.162  1.00  0.00     0.159 HD
ATOM     62  H   UNL     1     -18.499  -8.537 -11.353  1.00  0.00     0.159 HD
BRANCH  58  63
ATOM     63  NH1 ARG A   5     -19.856  -6.532 -10.386  1.00  0.00    -0.270 NA
ATOM     64  H   UNL     1     -19.051  -6.233 -10.981  1.00  0.00     0.191 HD
ENDBRANCH  58  63
ENDBRANCH  56  57
ENDBRANCH  55  56
ENDBRANCH  54  55
ENDBRANCH  38  54
ENDBRANCH  35  38
ENDBRANCH  33  34
BRANCH  33  65
ATOM     65  CB  HIS A   4     -19.672 -11.711  -1.514  1.00  0.00     0.093 C 
BRANCH  65  66
ATOM     66  CG  HIS A   4     -20.337 -12.946  -0.991  1.00  0.00     0.061 A 
ATOM     67  ND1 HIS A   4     -19.792 -14.177  -1.049  1.00  0.00    -0.242 NA
ATOM     68  CD2 HIS A   4     -21.607 -13.020  -0.464  1.00  0.00     0.107 A 
ATOM     69  CE1 HIS A   4     -20.749 -14.979  -0.534  1.00  0.00     0.196 A 
ATOM     70  NE2 HIS A   4     -21.857 -14.305  -0.174  1.00  0.00    -0.351 N 
ATOM     71  H   UNL     1     -22.731 -14.700   0.237  1.00  0.00     0.167 HD
ENDBRANCH  65  66
ENDBRANCH  33  65
ENDBRANCH   3  33
TORSDOF 28
