REMARK SMILES CC(C)C[C@H](NC(=O)[C@H](CCCNC(=N)N)NC(=O)[C@H](Cc1ccccc1)NC(=O)[C@@H](N)CO)C(=O)N[C@@H](CCCNC(=N)N)C(=O)N[C@@H](CCCNC(=N)N)C(=O)O
REMARK SMILES IDX 35 1 36 2 37 3 5 5 6 6 7 7 8 8 9 10 17 11 18 12 19 13 20 15
REMARK SMILES IDX 28 16 29 17 30 18 31 20 32 21 33 24 34 25 21 27 22 28 23 29
REMARK SMILES IDX 27 30 24 31 26 32 25 33 10 34 11 35 12 36 13 37 14 38 16 39
REMARK SMILES IDX 15 43 4 45 2 46 1 47 3 48 38 49 46 50 48 51 47 52 49 54
REMARK SMILES IDX 57 55 58 56 59 57 50 59 51 60 52 61 53 62 54 63 56 64 55 68
REMARK SMILES IDX 39 70 40 71 41 72 42 73 43 74 45 75 44 79
REMARK H PARENT 37 4 6 9 17 14 28 19 32 22 32 23 34 26 13 40 16 41 16 42 15 44
REMARK H PARENT 48 53 59 58 53 65 56 66 56 67 55 69 42 76 45 77 45 78 44 80
ROOT
ATOM      1  C   LEU A   4     -21.170 -11.060  -3.463  1.00  0.00     0.243 C 
ATOM      2  O   LEU A   4     -21.972 -10.549  -2.634  1.00  0.00    -0.273 OA
ATOM      3  N   ARG A   5     -21.505 -11.139  -4.842  1.00  0.00    -0.343 N 
ATOM      4  H   UNL     1     -21.059 -11.897  -5.406  1.00  0.00     0.164 HD
ENDROOT
BRANCH   1   5
ATOM      5  CA  LEU A   4     -19.816 -11.543  -3.054  1.00  0.00     0.171 C 
BRANCH   5   6
ATOM      6  N   LEU A   4     -18.845 -10.576  -3.523  1.00  0.00    -0.343 N 
ATOM      7  C   ARG A   3     -18.384 -10.533  -4.866  1.00  0.00     0.243 C 
ATOM      8  O   ARG A   3     -18.744 -11.396  -5.712  1.00  0.00    -0.273 OA
ATOM      9  H   UNL     1     -18.586  -9.791  -2.881  1.00  0.00     0.164 HD
BRANCH   7  10
ATOM     10  CA  ARG A   3     -17.457  -9.432  -5.245  1.00  0.00     0.171 C 
BRANCH  10  11
ATOM     11  N   ARG A   3     -16.214 -10.000  -5.727  1.00  0.00    -0.343 N 
ATOM     12  C   PHE A   2     -15.256 -10.542  -4.825  1.00  0.00     0.243 C 
ATOM     13  O   PHE A   2     -15.479 -10.576  -3.583  1.00  0.00    -0.273 OA
ATOM     14  H   UNL     1     -16.024 -10.025  -6.755  1.00  0.00     0.164 HD
BRANCH  12  15
ATOM     15  CA  PHE A   2     -13.977 -11.060  -5.383  1.00  0.00     0.175 C 
BRANCH  15  16
ATOM     16  N   PHE A   2     -12.857 -10.482  -4.660  1.00  0.00    -0.343 N 
ATOM     17  C   SER A   1     -12.599  -9.080  -4.706  1.00  0.00     0.239 C 
ATOM     18  O   SER A   1     -13.360  -8.310  -5.355  1.00  0.00    -0.273 OA
ATOM     19  H   UNL     1     -12.222 -11.100  -4.104  1.00  0.00     0.164 HD
BRANCH  17  20
ATOM     20  CA  SER A   1     -11.437  -8.537  -3.932  1.00  0.00     0.167 C 
BRANCH  20  21
ATOM     21  N   SER A   1     -10.847  -7.390  -4.625  1.00  0.00    -0.318 NA
ATOM     22  H   UNL     1     -11.538  -6.608  -4.704  1.00  0.00     0.119 HD
ATOM     23  H   UNL     1     -10.030  -7.042  -4.072  1.00  0.00     0.119 HD
ENDBRANCH  20  21
BRANCH  20  24
ATOM     24  CB  SER A   1     -11.839  -8.201  -2.481  1.00  0.00     0.184 C 
BRANCH  24  25
ATOM     25  OG  SER A   1     -12.068  -6.828  -2.314  1.00  0.00    -0.394 OA
ATOM     26  H   UNL     1     -12.986  -6.654  -2.650  1.00  0.00     0.210 HD
ENDBRANCH  24  25
ENDBRANCH  20  24
ENDBRANCH  17  20
ENDBRANCH  15  16
BRANCH  15  27
ATOM     27  CB  PHE A   2     -13.965 -12.595  -5.326  1.00  0.00     0.070 C 
BRANCH  27  28
ATOM     28  CG  PHE A   2     -12.883 -13.199  -6.183  1.00  0.00    -0.045 A 
ATOM     29  CD1 PHE A   2     -12.723 -12.807  -7.526  1.00  0.00     0.004 A 
ATOM     30  CD2 PHE A   2     -12.092 -14.244  -5.682  1.00  0.00     0.004 A 
ATOM     31  CE1 PHE A   2     -11.747 -13.399  -8.324  1.00  0.00     0.000 A 
ATOM     32  CE2 PHE A   2     -11.133 -14.853  -6.495  1.00  0.00     0.000 A 
ATOM     33  CZ  PHE A   2     -10.955 -14.424  -7.811  1.00  0.00     0.000 A 
ENDBRANCH  27  28
ENDBRANCH  15  27
ENDBRANCH  12  15
ENDBRANCH  10  11
BRANCH  10  34
ATOM     34  CB  ARG A   3     -18.106  -8.526  -6.293  1.00  0.00     0.037 C 
BRANCH  34  35
ATOM     35  CG  ARG A   3     -17.519  -7.114  -6.261  1.00  0.00     0.024 C 
BRANCH  35  36
ATOM     36  CD  ARG A   3     -18.191  -6.241  -7.320  1.00  0.00     0.116 C 
BRANCH  36  37
ATOM     37  NE  ARG A   3     -17.671  -4.875  -7.266  1.00  0.00    -0.357 N 
ATOM     38  CZ  ARG A   3     -16.365  -4.472  -7.719  1.00  0.00     0.185 C 
ATOM     39  NH2 ARG A   3     -15.925  -3.135  -7.482  1.00  0.00    -0.370 N 
ATOM     40  H   UNL     1     -18.302  -4.137  -6.877  1.00  0.00     0.163 HD
ATOM     41  H   UNL     1     -14.985  -2.819  -7.809  1.00  0.00     0.159 HD
ATOM     42  H   UNL     1     -16.536  -2.457  -6.974  1.00  0.00     0.159 HD
BRANCH  38  43
ATOM     43  NH1 ARG A   3     -15.581  -5.287  -8.356  1.00  0.00    -0.270 NA
ATOM     44  H   UNL     1     -15.829  -6.274  -8.583  1.00  0.00     0.191 HD
ENDBRANCH  38  43
ENDBRANCH  36  37
ENDBRANCH  35  36
ENDBRANCH  34  35
ENDBRANCH  10  34
ENDBRANCH   7  10
ENDBRANCH   5   6
BRANCH   5  45
ATOM     45  CB  LEU A   4     -19.653 -11.691  -1.534  1.00  0.00     0.038 C 
BRANCH  45  46
ATOM     46  CG  LEU A   4     -20.296 -12.956  -0.945  1.00  0.00    -0.015 C 
ATOM     47  CD1 LEU A   4     -19.611 -14.233  -1.461  1.00  0.00     0.007 C 
ATOM     48  CD2 LEU A   4     -20.194 -12.898   0.583  1.00  0.00     0.007 C 
ENDBRANCH  45  46
ENDBRANCH   5  45
ENDBRANCH   1   5
BRANCH   3  49
ATOM     49  CA  ARG A   5     -22.680 -10.496  -5.387  1.00  0.00     0.171 C 
BRANCH  49  50
ATOM     50  C   ARG A   5     -23.897 -11.195  -4.885  1.00  0.00     0.243 C 
ATOM     51  N   ARG A   6     -24.982 -10.406  -4.427  1.00  0.00    -0.341 N 
ATOM     52  O   ARG A   5     -23.964 -12.455  -4.870  1.00  0.00    -0.273 OA
ATOM     53  H   UNL     1     -24.933  -9.366  -4.539  1.00  0.00     0.164 HD
BRANCH  51  54
ATOM     54  CA  ARG A   6     -26.189 -11.006  -3.882  1.00  0.00     0.192 C 
BRANCH  54  55
ATOM     55  C   ARG A   6     -27.044 -11.529  -5.003  1.00  0.00     0.326 C 
ATOM     56  O   ARG A   6     -27.156 -10.884  -6.080  1.00  0.00    -0.250 OA
BRANCH  55  57
ATOM     57  OXT ARG A   6     -27.728 -12.730  -4.843  1.00  0.00    -0.480 OA
ATOM     58  H   UNL     1     -28.316 -13.096  -5.582  1.00  0.00     0.296 HD
ENDBRANCH  55  57
ENDBRANCH  54  55
BRANCH  54  59
ATOM     59  CB  ARG A   6     -26.927  -9.960  -3.035  1.00  0.00     0.039 C 
BRANCH  59  60
ATOM     60  CG  ARG A   6     -28.077 -10.563  -2.211  1.00  0.00     0.024 C 
BRANCH  60  61
ATOM     61  CD  ARG A   6     -29.451 -10.401  -2.882  1.00  0.00     0.116 C 
BRANCH  61  62
ATOM     62  NE  ARG A   6     -29.881  -9.001  -2.895  1.00  0.00    -0.357 N 
ATOM     63  CZ  ARG A   6     -31.117  -8.575  -3.488  1.00  0.00     0.185 C 
ATOM     64  NH2 ARG A   6     -32.018  -9.517  -4.085  1.00  0.00    -0.370 N 
ATOM     65  H   UNL     1     -29.273  -8.271  -2.458  1.00  0.00     0.163 HD
ATOM     66  H   UNL     1     -31.813 -10.540  -4.099  1.00  0.00     0.159 HD
ATOM     67  H   UNL     1     -32.912  -9.194  -4.517  1.00  0.00     0.159 HD
BRANCH  63  68
ATOM     68  NH1 ARG A   6     -31.418  -7.315  -3.478  1.00  0.00    -0.270 NA
ATOM     69  H   UNL     1     -32.306  -6.958  -3.897  1.00  0.00     0.191 HD
ENDBRANCH  63  68
ENDBRANCH  61  62
ENDBRANCH  60  61
ENDBRANCH  59  60
ENDBRANCH  54  59
ENDBRANCH  51  54
ENDBRANCH  49  50
BRANCH  49  70
ATOM     70  CB  ARG A   5     -22.650 -10.517  -6.915  1.00  0.00     0.037 C 
BRANCH  70  71
ATOM     71  CG  ARG A   5     -21.461  -9.718  -7.458  1.00  0.00     0.024 C 
BRANCH  71  72
ATOM     72  CD  ARG A   5     -21.601  -9.480  -8.963  1.00  0.00     0.116 C 
BRANCH  72  73
ATOM     73  NE  ARG A   5     -21.189  -8.117  -9.282  1.00  0.00    -0.357 N 
ATOM     74  CZ  ARG A   5     -20.075  -7.775 -10.105  1.00  0.00     0.185 C 
ATOM     75  NH2 ARG A   5     -19.200  -8.774 -10.616  1.00  0.00    -0.370 N 
ATOM     76  H   UNL     1     -21.774  -7.342  -8.893  1.00  0.00     0.163 HD
ATOM     77  H   UNL     1     -19.096  -9.709 -10.170  1.00  0.00     0.159 HD
ATOM     78  H   UNL     1     -18.493  -8.517 -11.341  1.00  0.00     0.159 HD
BRANCH  74  79
ATOM     79  NH1 ARG A   5     -19.848  -6.533 -10.393  1.00  0.00    -0.270 NA
ATOM     80  H   UNL     1     -20.458  -5.762 -10.040  1.00  0.00     0.191 HD
ENDBRANCH  74  79
ENDBRANCH  72  73
ENDBRANCH  71  72
ENDBRANCH  70  71
ENDBRANCH  49  70
ENDBRANCH   3  49
TORSDOF 34
