REMARK SMILES CC(C)C[C@H](NC(=O)[C@H](CCCNC(=N)N)NC(=O)[C@@H](N)CO)C(=O)N1CCC[C@H]1C(=O)N[C@@H](CCCNC(=N)N)C(=O)N[C@@H](CC(N)=O)C(=O)O
REMARK SMILES IDX 24 1 25 2 5 3 6 4 7 5 8 6 9 8 17 9 18 10 19 11 20 13 21 14
REMARK SMILES IDX 22 17 23 18 10 20 11 21 12 22 13 23 14 24 16 25 15 29 4 31
REMARK SMILES IDX 2 32 1 33 3 34 26 35 30 36 27 37 29 38 28 39 31 40 33 41
REMARK SMILES IDX 32 42 34 44 42 45 44 46 43 47 45 49 50 50 51 51 52 52 46 54
REMARK SMILES IDX 47 55 48 56 49 57 35 60 36 61 37 62 38 63 39 64 41 65 40 69
REMARK H PARENT 6 7 17 12 21 15 21 16 23 19 13 26 16 27 16 28 15 30 33 43
REMARK H PARENT 44 48 52 53 48 58 48 59 38 66 41 67 41 68 40 70
ROOT
ATOM      1  C   LEU A   3     -27.068 -11.526  -5.013  1.00  0.00     0.245 C 
ATOM      2  O   LEU A   3     -27.151 -10.869  -6.084  1.00  0.00    -0.272 OA
ENDROOT
BRANCH   1   3
ATOM      3  CA  LEU A   3     -26.186 -11.022  -3.891  1.00  0.00     0.171 C 
BRANCH   3   4
ATOM      4  N   LEU A   3     -24.984 -10.416  -4.443  1.00  0.00    -0.343 N 
ATOM      5  C   ARG A   2     -23.885 -11.199  -4.885  1.00  0.00     0.243 C 
ATOM      6  O   ARG A   2     -23.943 -12.458  -4.865  1.00  0.00    -0.273 OA
ATOM      7  H   UNL     1     -24.951  -9.380  -4.581  1.00  0.00     0.164 HD
BRANCH   5   8
ATOM      8  CA  ARG A   2     -22.669 -10.492  -5.391  1.00  0.00     0.171 C 
BRANCH   8   9
ATOM      9  N   ARG A   2     -21.474 -11.108  -4.849  1.00  0.00    -0.343 N 
ATOM     10  C   SER A   1     -21.147 -11.038  -3.469  1.00  0.00     0.239 C 
ATOM     11  O   SER A   1     -21.965 -10.556  -2.637  1.00  0.00    -0.273 OA
ATOM     12  H   UNL     1     -20.855 -11.675  -5.473  1.00  0.00     0.164 HD
BRANCH  10  13
ATOM     13  CA  SER A   1     -19.793 -11.524  -3.056  1.00  0.00     0.167 C 
BRANCH  13  14
ATOM     14  N   SER A   1     -18.781 -10.598  -3.566  1.00  0.00    -0.318 NA
ATOM     15  H   UNL     1     -17.837 -10.956  -3.291  1.00  0.00     0.119 HD
ATOM     16  H   UNL     1     -18.796 -10.621  -4.612  1.00  0.00     0.119 HD
ENDBRANCH  13  14
BRANCH  13  17
ATOM     17  CB  SER A   1     -19.672 -11.680  -1.537  1.00  0.00     0.184 C 
BRANCH  17  18
ATOM     18  OG  SER A   1     -19.726 -10.428  -0.908  1.00  0.00    -0.394 OA
ATOM     19  H   UNL     1     -19.647 -10.606   0.064  1.00  0.00     0.210 HD
ENDBRANCH  17  18
ENDBRANCH  13  17
ENDBRANCH  10  13
ENDBRANCH   8   9
BRANCH   8  20
ATOM     20  CB  ARG A   2     -22.639 -10.518  -6.917  1.00  0.00     0.037 C 
BRANCH  20  21
ATOM     21  CG  ARG A   2     -21.453  -9.712  -7.461  1.00  0.00     0.024 C 
BRANCH  21  22
ATOM     22  CD  ARG A   2     -21.599  -9.478  -8.964  1.00  0.00     0.116 C 
BRANCH  22  23
ATOM     23  NE  ARG A   2     -21.190  -8.117  -9.288  1.00  0.00    -0.357 N 
ATOM     24  CZ  ARG A   2     -20.072  -7.775 -10.106  1.00  0.00     0.185 C 
ATOM     25  NH2 ARG A   2     -19.200  -8.775 -10.622  1.00  0.00    -0.370 N 
ATOM     26  H   UNL     1     -21.777  -7.343  -8.902  1.00  0.00     0.163 HD
ATOM     27  H   UNL     1     -19.110  -9.721 -10.196  1.00  0.00     0.159 HD
ATOM     28  H   UNL     1     -18.491  -8.516 -11.344  1.00  0.00     0.159 HD
BRANCH  24  29
ATOM     29  NH1 ARG A   2     -19.843  -6.533 -10.390  1.00  0.00    -0.270 NA
ATOM     30  H   UNL     1     -20.456  -5.763 -10.039  1.00  0.00     0.191 HD
ENDBRANCH  24  29
ENDBRANCH  22  23
ENDBRANCH  21  22
ENDBRANCH  20  21
ENDBRANCH   8  20
ENDBRANCH   5   8
ENDBRANCH   3   4
BRANCH   3  31
ATOM     31  CB  LEU A   3     -26.916  -9.972  -3.037  1.00  0.00     0.038 C 
BRANCH  31  32
ATOM     32  CG  LEU A   3     -28.064 -10.556  -2.190  1.00  0.00    -0.015 C 
ATOM     33  CD1 LEU A   3     -27.546 -11.423  -1.030  1.00  0.00     0.007 C 
ATOM     34  CD2 LEU A   3     -28.929  -9.418  -1.633  1.00  0.00     0.007 C 
ENDBRANCH  31  32
ENDBRANCH   3  31
ENDBRANCH   1   3
BRANCH   1  35
ATOM     35  N   PRO A   4     -27.885 -12.696  -4.849  1.00  0.00    -0.329 N 
ATOM     36  CA  PRO A   4     -27.369 -14.000  -4.467  1.00  0.00     0.174 C 
ATOM     37  CD  PRO A   4     -29.285 -12.731  -5.242  1.00  0.00     0.120 C 
ATOM     38  CB  PRO A   4     -28.607 -14.878  -4.275  1.00  0.00     0.037 C 
ATOM     39  CG  PRO A   4     -29.763 -14.155  -4.969  1.00  0.00     0.024 C 
BRANCH  36  40
ATOM     40  C   PRO A   4     -26.477 -14.536  -5.560  1.00  0.00     0.243 C 
ATOM     41  N   ARG A   5     -26.916 -14.514  -6.927  1.00  0.00    -0.343 N 
ATOM     42  O   PRO A   4     -25.349 -15.012  -5.264  1.00  0.00    -0.273 OA
ATOM     43  H   UNL     1     -27.937 -14.444  -7.127  1.00  0.00     0.164 HD
BRANCH  41  44
ATOM     44  CA  ARG A   5     -25.996 -14.528  -8.063  1.00  0.00     0.171 C 
BRANCH  44  45
ATOM     45  C   ARG A   5     -26.316 -13.352  -8.953  1.00  0.00     0.243 C 
ATOM     46  N   ASN A   6     -25.536 -12.149  -8.860  1.00  0.00    -0.341 N 
ATOM     47  O   ARG A   5     -27.309 -13.409  -9.729  1.00  0.00    -0.273 OA
ATOM     48  H   UNL     1     -24.804 -12.100  -8.117  1.00  0.00     0.164 HD
BRANCH  46  49
ATOM     49  CA  ASN A   6     -25.682 -10.989  -9.749  1.00  0.00     0.201 C 
BRANCH  49  50
ATOM     50  C   ASN A   6     -27.037 -10.354  -9.577  1.00  0.00     0.326 C 
ATOM     51  O   ASN A   6     -28.027 -10.749 -10.250  1.00  0.00    -0.250 OA
BRANCH  50  52
ATOM     52  OXT ASN A   6     -27.201  -9.336  -8.644  1.00  0.00    -0.480 OA
ATOM     53  H   UNL     1     -28.106  -8.904  -8.500  1.00  0.00     0.296 HD
ENDBRANCH  50  52
ENDBRANCH  49  50
BRANCH  49  54
ATOM     54  CB  ASN A   6     -25.389 -11.353 -11.218  1.00  0.00     0.136 C 
BRANCH  54  55
ATOM     55  CG  ASN A   6     -23.963 -11.786 -11.398  1.00  0.00     0.220 C 
ATOM     56  ND2 ASN A   6     -22.965 -10.846 -11.798  1.00  0.00    -0.370 N 
ATOM     57  OD1 ASN A   6     -23.637 -12.980 -11.169  1.00  0.00    -0.275 OA
ATOM     58  H   UNL     1     -21.972 -11.149 -11.909  1.00  0.00     0.159 HD
ATOM     59  H   UNL     1     -23.210  -9.845 -11.967  1.00  0.00     0.159 HD
ENDBRANCH  54  55
ENDBRANCH  49  54
ENDBRANCH  46  49
ENDBRANCH  44  45
BRANCH  44  60
ATOM     60  CB  ARG A   5     -26.128 -15.870  -8.809  1.00  0.00     0.037 C 
BRANCH  60  61
ATOM     61  CG  ARG A   5     -25.113 -15.999  -9.958  1.00  0.00     0.024 C 
BRANCH  61  62
ATOM     62  CD  ARG A   5     -25.280 -17.318 -10.725  1.00  0.00     0.116 C 
BRANCH  62  63
ATOM     63  NE  ARG A   5     -24.860 -18.470  -9.924  1.00  0.00    -0.357 N 
ATOM     64  CZ  ARG A   5     -25.000 -19.814 -10.404  1.00  0.00     0.185 C 
ATOM     65  NH2 ARG A   5     -24.555 -20.906  -9.594  1.00  0.00    -0.370 N 
ATOM     66  H   UNL     1     -24.427 -18.322  -8.985  1.00  0.00     0.163 HD
ATOM     67  H   UNL     1     -24.126 -20.732  -8.658  1.00  0.00     0.159 HD
ATOM     68  H   UNL     1     -24.653 -21.892  -9.925  1.00  0.00     0.159 HD
BRANCH  64  69
ATOM     69  NH1 ARG A   5     -25.531 -20.042 -11.564  1.00  0.00    -0.270 NA
ATOM     70  H   UNL     1     -25.646 -21.012 -11.934  1.00  0.00     0.191 HD
ENDBRANCH  64  69
ENDBRANCH  62  63
ENDBRANCH  61  62
ENDBRANCH  60  61
ENDBRANCH  44  60
ENDBRANCH  41  44
ENDBRANCH  36  40
ENDBRANCH   1  35
TORSDOF 29
