REMARK SMILES CC(C)C[C@H](NC(=O)[C@H](Cc1ccccc1)NC(=O)[C@@H](N)CO)C(=O)NCC(=O)N[C@@H](CCCNC(=N)N)C(=O)N[C@@H](CCCCN)C(=O)O
REMARK SMILES IDX 28 1 29 2 30 3 27 5 26 6 24 7 25 8 5 10 6 11 7 12 8 13 9 15
REMARK SMILES IDX 17 16 18 17 19 18 20 20 21 21 22 24 23 25 10 27 11 28 12 29
REMARK SMILES IDX 16 30 13 31 15 32 14 33 4 34 2 35 1 36 3 37 31 38 39 39
REMARK SMILES IDX 41 40 40 41 42 43 48 44 49 45 50 46 43 48 44 49 45 50 46 51
REMARK SMILES IDX 47 52 32 55 33 56 34 57 35 58 36 59 38 60 37 64
REMARK H PARENT 30 4 26 9 6 14 17 19 21 22 21 23 23 26 41 42 50 47 47 53 47 54
REMARK H PARENT 35 61 38 62 38 63 37 65
ROOT
ATOM      1  C   GLY A   4     -21.166 -11.056  -3.467  1.00  0.00     0.240 C 
ATOM      2  O   GLY A   4     -21.961 -10.547  -2.631  1.00  0.00    -0.273 OA
ATOM      3  N   ARG A   5     -21.503 -11.136  -4.845  1.00  0.00    -0.343 N 
ATOM      4  H   UNL     1     -21.071 -11.906  -5.402  1.00  0.00     0.164 HD
ENDROOT
BRANCH   1   5
ATOM      5  CA  GLY A   4     -19.842 -11.571  -3.040  1.00  0.00     0.216 C 
BRANCH   5   6
ATOM      6  N   GLY A   4     -18.819 -10.647  -3.493  1.00  0.00    -0.345 N 
ATOM      7  C   LEU A   3     -18.391 -10.560  -4.852  1.00  0.00     0.243 C 
ATOM      8  O   LEU A   3     -18.765 -11.403  -5.711  1.00  0.00    -0.273 OA
ATOM      9  H   UNL     1     -18.407 -10.005  -2.779  1.00  0.00     0.164 HD
BRANCH   7  10
ATOM     10  CA  LEU A   3     -17.462  -9.459  -5.229  1.00  0.00     0.171 C 
BRANCH  10  11
ATOM     11  N   LEU A   3     -16.220 -10.018  -5.721  1.00  0.00    -0.343 N 
ATOM     12  C   PHE A   2     -15.253 -10.547  -4.823  1.00  0.00     0.243 C 
ATOM     13  O   PHE A   2     -15.470 -10.578  -3.580  1.00  0.00    -0.273 OA
ATOM     14  H   UNL     1     -16.047 -10.066  -6.751  1.00  0.00     0.164 HD
BRANCH  12  15
ATOM     15  CA  PHE A   2     -13.976 -11.060  -5.384  1.00  0.00     0.175 C 
BRANCH  15  16
ATOM     16  N   PHE A   2     -12.855 -10.484  -4.661  1.00  0.00    -0.343 N 
ATOM     17  C   SER A   1     -12.596  -9.082  -4.702  1.00  0.00     0.239 C 
ATOM     18  O   SER A   1     -13.355  -8.307  -5.349  1.00  0.00    -0.273 OA
ATOM     19  H   UNL     1     -12.220 -11.103  -4.107  1.00  0.00     0.164 HD
BRANCH  17  20
ATOM     20  CA  SER A   1     -11.430  -8.545  -3.930  1.00  0.00     0.167 C 
BRANCH  20  21
ATOM     21  N   SER A   1     -10.865  -7.379  -4.607  1.00  0.00    -0.318 NA
ATOM     22  H   UNL     1     -10.001  -7.089  -4.092  1.00  0.00     0.119 HD
ATOM     23  H   UNL     1     -10.544  -7.674  -5.559  1.00  0.00     0.119 HD
ENDBRANCH  20  21
BRANCH  20  24
ATOM     24  CB  SER A   1     -11.840  -8.205  -2.484  1.00  0.00     0.184 C 
BRANCH  24  25
ATOM     25  OG  SER A   1     -12.062  -6.828  -2.339  1.00  0.00    -0.394 OA
ATOM     26  H   UNL     1     -12.323  -6.688  -1.392  1.00  0.00     0.210 HD
ENDBRANCH  24  25
ENDBRANCH  20  24
ENDBRANCH  17  20
ENDBRANCH  15  16
BRANCH  15  27
ATOM     27  CB  PHE A   2     -13.964 -12.596  -5.327  1.00  0.00     0.070 C 
BRANCH  27  28
ATOM     28  CG  PHE A   2     -12.882 -13.199  -6.184  1.00  0.00    -0.045 A 
ATOM     29  CD1 PHE A   2     -12.722 -12.807  -7.527  1.00  0.00     0.004 A 
ATOM     30  CD2 PHE A   2     -12.091 -14.244  -5.683  1.00  0.00     0.004 A 
ATOM     31  CE1 PHE A   2     -11.747 -13.399  -8.324  1.00  0.00     0.000 A 
ATOM     32  CE2 PHE A   2     -11.133 -14.854  -6.496  1.00  0.00     0.000 A 
ATOM     33  CZ  PHE A   2     -10.954 -14.424  -7.812  1.00  0.00     0.000 A 
ENDBRANCH  27  28
ENDBRANCH  15  27
ENDBRANCH  12  15
ENDBRANCH  10  11
BRANCH  10  34
ATOM     34  CB  LEU A   3     -18.107  -8.529  -6.265  1.00  0.00     0.038 C 
BRANCH  34  35
ATOM     35  CG  LEU A   3     -17.545  -7.095  -6.219  1.00  0.00    -0.015 C 
ATOM     36  CD1 LEU A   3     -18.188  -6.268  -7.336  1.00  0.00     0.007 C 
ATOM     37  CD2 LEU A   3     -17.810  -6.422  -4.859  1.00  0.00     0.007 C 
ENDBRANCH  34  35
ENDBRANCH  10  34
ENDBRANCH   7  10
ENDBRANCH   5   6
ENDBRANCH   1   5
BRANCH   3  38
ATOM     38  CA  ARG A   5     -22.679 -10.494  -5.387  1.00  0.00     0.171 C 
BRANCH  38  39
ATOM     39  C   ARG A   5     -23.896 -11.194  -4.885  1.00  0.00     0.243 C 
ATOM     40  N   LYS A   6     -24.983 -10.406  -4.429  1.00  0.00    -0.341 N 
ATOM     41  O   ARG A   5     -23.962 -12.454  -4.870  1.00  0.00    -0.273 OA
ATOM     42  H   UNL     1     -24.938  -9.367  -4.545  1.00  0.00     0.164 HD
BRANCH  40  43
ATOM     43  CA  LYS A   6     -26.186 -11.009  -3.881  1.00  0.00     0.192 C 
BRANCH  43  44
ATOM     44  C   LYS A   6     -27.049 -11.527  -5.001  1.00  0.00     0.326 C 
ATOM     45  O   LYS A   6     -27.154 -10.884  -6.079  1.00  0.00    -0.250 OA
BRANCH  44  46
ATOM     46  OXT LYS A   6     -27.747 -12.720  -4.836  1.00  0.00    -0.480 OA
ATOM     47  H   UNL     1     -28.338 -13.082  -5.574  1.00  0.00     0.296 HD
ENDBRANCH  44  46
ENDBRANCH  43  44
BRANCH  43  48
ATOM     48  CB  LYS A   6     -26.925  -9.966  -3.031  1.00  0.00     0.037 C 
BRANCH  48  49
ATOM     49  CG  LYS A   6     -28.080 -10.557  -2.215  1.00  0.00     0.004 C 
BRANCH  49  50
ATOM     50  CD  LYS A   6     -27.606 -11.416  -1.032  1.00  0.00     0.015 C 
BRANCH  50  51
ATOM     51  CE  LYS A   6     -28.786 -11.834  -0.150  1.00  0.00     0.077 C 
BRANCH  51  52
ATOM     52  NZ  LYS A   6     -28.321 -12.679   0.945  1.00  0.00    -0.330 NA
ATOM     53  H   UNL     1     -27.768 -12.084   1.605  1.00  0.00     0.118 HD
ATOM     54  H   UNL     1     -29.162 -13.005   1.475  1.00  0.00     0.118 HD
ENDBRANCH  51  52
ENDBRANCH  50  51
ENDBRANCH  49  50
ENDBRANCH  48  49
ENDBRANCH  43  48
ENDBRANCH  40  43
ENDBRANCH  38  39
BRANCH  38  55
ATOM     55  CB  ARG A   5     -22.651 -10.515  -6.916  1.00  0.00     0.037 C 
BRANCH  55  56
ATOM     56  CG  ARG A   5     -21.462  -9.718  -7.459  1.00  0.00     0.024 C 
BRANCH  56  57
ATOM     57  CD  ARG A   5     -21.602  -9.479  -8.964  1.00  0.00     0.116 C 
BRANCH  57  58
ATOM     58  NE  ARG A   5     -21.190  -8.117  -9.283  1.00  0.00    -0.357 N 
ATOM     59  CZ  ARG A   5     -20.075  -7.775 -10.105  1.00  0.00     0.185 C 
ATOM     60  NH2 ARG A   5     -19.200  -8.774 -10.616  1.00  0.00    -0.370 N 
ATOM     61  H   UNL     1     -21.775  -7.342  -8.894  1.00  0.00     0.163 HD
ATOM     62  H   UNL     1     -18.493  -8.517 -11.341  1.00  0.00     0.159 HD
ATOM     63  H   UNL     1     -19.097  -9.710 -10.171  1.00  0.00     0.159 HD
BRANCH  59  64
ATOM     64  NH1 ARG A   5     -19.847  -6.533 -10.392  1.00  0.00    -0.270 NA
ATOM     65  H   UNL     1     -20.457  -5.762 -10.039  1.00  0.00     0.191 HD
ENDBRANCH  59  64
ENDBRANCH  57  58
ENDBRANCH  56  57
ENDBRANCH  55  56
ENDBRANCH  38  55
ENDBRANCH   3  38
TORSDOF 29
