REMARK SMILES CC(C)C[C@H](NC(=O)[C@H](CCCNC(=N)N)NC(=O)[C@H](Cc1ccccc1)NC(=O)[C@H](C)N)C(=O)N[C@@H](CCCNC(=N)N)C(=O)N[C@@H](CC(N)=O)C(=O)O
REMARK SMILES IDX 5 1 6 2 7 3 8 4 9 6 17 7 18 8 19 9 20 11 28 12 29 13 30 14
REMARK SMILES IDX 31 16 32 17 33 18 21 21 22 22 23 23 27 24 24 25 26 26 25 27
REMARK SMILES IDX 10 28 11 29 12 30 13 31 14 32 16 33 15 37 34 39 36 40 35 41
REMARK SMILES IDX 37 43 45 44 47 45 46 46 48 48 53 49 54 50 55 51 49 53 50 54
REMARK SMILES IDX 51 55 52 56 38 59 39 60 40 61 41 62 42 63 44 64 43 68 4 70
REMARK SMILES IDX 2 71 1 72 3 73
REMARK H PARENT 6 5 17 10 28 15 33 19 33 20 13 34 16 35 16 36 15 38 36 42
REMARK H PARENT 47 47 55 52 51 57 51 58 41 65 44 66 44 67 43 69
ROOT
ATOM      1  CA  LEU A   4     -19.816 -11.543  -3.054  1.00  0.00     0.171 C 
ENDROOT
BRANCH   1   2
ATOM      2  N   LEU A   4     -18.845 -10.577  -3.523  1.00  0.00    -0.343 N 
ATOM      3  C   ARG A   3     -18.384 -10.536  -4.867  1.00  0.00     0.243 C 
ATOM      4  O   ARG A   3     -18.745 -11.399  -5.713  1.00  0.00    -0.273 OA
ATOM      5  H   UNL     1     -18.586  -9.791  -2.882  1.00  0.00     0.164 HD
BRANCH   3   6
ATOM      6  CA  ARG A   3     -17.458  -9.436  -5.248  1.00  0.00     0.171 C 
BRANCH   6   7
ATOM      7  N   ARG A   3     -16.214 -10.003  -5.728  1.00  0.00    -0.343 N 
ATOM      8  C   PHE A   2     -15.255 -10.543  -4.825  1.00  0.00     0.243 C 
ATOM      9  O   PHE A   2     -15.478 -10.575  -3.584  1.00  0.00    -0.273 OA
ATOM     10  H   UNL     1     -16.025 -10.033  -6.756  1.00  0.00     0.164 HD
BRANCH   8  11
ATOM     11  CA  PHE A   2     -13.976 -11.061  -5.383  1.00  0.00     0.175 C 
BRANCH  11  12
ATOM     12  N   PHE A   2     -12.854 -10.486  -4.661  1.00  0.00    -0.343 N 
ATOM     13  C   ALA A   1     -12.594  -9.085  -4.707  1.00  0.00     0.237 C 
ATOM     14  O   ALA A   1     -13.353  -8.314  -5.357  1.00  0.00    -0.273 OA
ATOM     15  H   UNL     1     -12.219 -11.104  -4.106  1.00  0.00     0.164 HD
BRANCH  13  16
ATOM     16  CA  ALA A   1     -11.442  -8.540  -3.922  1.00  0.00     0.138 C 
ATOM     17  CB  ALA A   1     -11.884  -8.219  -2.492  1.00  0.00     0.035 C 
BRANCH  16  18
ATOM     18  N   ALA A   1     -10.887  -7.360  -4.584  1.00  0.00    -0.320 NA
ATOM     19  H   UNL     1     -10.007  -7.084  -4.090  1.00  0.00     0.119 HD
ATOM     20  H   UNL     1     -11.555  -6.559  -4.493  1.00  0.00     0.119 HD
ENDBRANCH  16  18
ENDBRANCH  13  16
ENDBRANCH  11  12
BRANCH  11  21
ATOM     21  CB  PHE A   2     -13.965 -12.596  -5.327  1.00  0.00     0.070 C 
BRANCH  21  22
ATOM     22  CG  PHE A   2     -12.883 -13.200  -6.184  1.00  0.00    -0.045 A 
ATOM     23  CD1 PHE A   2     -12.723 -12.807  -7.526  1.00  0.00     0.004 A 
ATOM     24  CD2 PHE A   2     -12.091 -14.244  -5.682  1.00  0.00     0.004 A 
ATOM     25  CE1 PHE A   2     -11.747 -13.399  -8.324  1.00  0.00     0.000 A 
ATOM     26  CE2 PHE A   2     -11.133 -14.854  -6.495  1.00  0.00     0.000 A 
ATOM     27  CZ  PHE A   2     -10.954 -14.424  -7.811  1.00  0.00     0.000 A 
ENDBRANCH  21  22
ENDBRANCH  11  21
ENDBRANCH   8  11
ENDBRANCH   6   7
BRANCH   6  28
ATOM     28  CB  ARG A   3     -18.107  -8.530  -6.296  1.00  0.00     0.037 C 
BRANCH  28  29
ATOM     29  CG  ARG A   3     -17.503  -7.124  -6.269  1.00  0.00     0.024 C 
BRANCH  29  30
ATOM     30  CD  ARG A   3     -18.189  -6.197  -7.274  1.00  0.00     0.116 C 
BRANCH  30  31
ATOM     31  NE  ARG A   3     -19.523  -5.797  -6.812  1.00  0.00    -0.357 N 
ATOM     32  CZ  ARG A   3     -20.291  -4.730  -7.398  1.00  0.00     0.185 C 
ATOM     33  NH2 ARG A   3     -21.615  -4.482  -6.927  1.00  0.00    -0.370 N 
ATOM     34  H   UNL     1     -19.938  -6.272  -5.979  1.00  0.00     0.163 HD
ATOM     35  H   UNL     1     -22.033  -5.077  -6.177  1.00  0.00     0.159 HD
ATOM     36  H   UNL     1     -22.188  -3.709  -7.334  1.00  0.00     0.159 HD
BRANCH  32  37
ATOM     37  NH1 ARG A   3     -19.806  -3.976  -8.336  1.00  0.00    -0.270 NA
ATOM     38  H   UNL     1     -18.852  -4.090  -8.739  1.00  0.00     0.191 HD
ENDBRANCH  32  37
ENDBRANCH  30  31
ENDBRANCH  29  30
ENDBRANCH  28  29
ENDBRANCH   6  28
ENDBRANCH   3   6
ENDBRANCH   1   2
BRANCH   1  39
ATOM     39  C   LEU A   4     -21.170 -11.060  -3.463  1.00  0.00     0.243 C 
ATOM     40  N   ARG A   5     -21.505 -11.140  -4.842  1.00  0.00    -0.343 N 
ATOM     41  O   LEU A   4     -21.972 -10.549  -2.634  1.00  0.00    -0.273 OA
ATOM     42  H   UNL     1     -21.060 -11.899  -5.405  1.00  0.00     0.164 HD
BRANCH  40  43
ATOM     43  CA  ARG A   5     -22.679 -10.497  -5.387  1.00  0.00     0.171 C 
BRANCH  43  44
ATOM     44  C   ARG A   5     -23.897 -11.194  -4.885  1.00  0.00     0.243 C 
ATOM     45  N   ASN A   6     -24.982 -10.402  -4.433  1.00  0.00    -0.341 N 
ATOM     46  O   ARG A   5     -23.966 -12.455  -4.868  1.00  0.00    -0.273 OA
ATOM     47  H   UNL     1     -24.931  -9.364  -4.552  1.00  0.00     0.164 HD
BRANCH  45  48
ATOM     48  CA  ASN A   6     -26.189 -10.994  -3.883  1.00  0.00     0.201 C 
BRANCH  48  49
ATOM     49  C   ASN A   6     -27.053 -11.522  -4.997  1.00  0.00     0.326 C 
ATOM     50  O   ASN A   6     -27.151 -10.892  -6.084  1.00  0.00    -0.250 OA
BRANCH  49  51
ATOM     51  OXT ASN A   6     -27.773 -12.698  -4.811  1.00  0.00    -0.480 OA
ATOM     52  H   UNL     1     -28.370 -13.063  -5.543  1.00  0.00     0.296 HD
ENDBRANCH  49  51
ENDBRANCH  48  49
BRANCH  48  53
ATOM     53  CB  ASN A   6     -26.930  -9.934  -3.062  1.00  0.00     0.136 C 
BRANCH  53  54
ATOM     54  CG  ASN A   6     -28.019 -10.549  -2.252  1.00  0.00     0.220 C 
ATOM     55  ND2 ASN A   6     -27.701 -11.241  -1.053  1.00  0.00    -0.370 N 
ATOM     56  OD1 ASN A   6     -29.213 -10.484  -2.643  1.00  0.00    -0.275 OA
ATOM     57  H   UNL     1     -28.456 -11.688  -0.487  1.00  0.00     0.159 HD
ATOM     58  H   UNL     1     -26.713 -11.314  -0.724  1.00  0.00     0.159 HD
ENDBRANCH  53  54
ENDBRANCH  48  53
ENDBRANCH  45  48
ENDBRANCH  43  44
BRANCH  43  59
ATOM     59  CB  ARG A   5     -22.649 -10.517  -6.915  1.00  0.00     0.037 C 
BRANCH  59  60
ATOM     60  CG  ARG A   5     -21.461  -9.716  -7.458  1.00  0.00     0.024 C 
BRANCH  60  61
ATOM     61  CD  ARG A   5     -21.602  -9.480  -8.963  1.00  0.00     0.116 C 
BRANCH  61  62
ATOM     62  NE  ARG A   5     -21.190  -8.118  -9.284  1.00  0.00    -0.357 N 
ATOM     63  CZ  ARG A   5     -20.077  -7.779 -10.111  1.00  0.00     0.185 C 
ATOM     64  NH2 ARG A   5     -19.193  -8.779 -10.604  1.00  0.00    -0.370 N 
ATOM     65  H   UNL     1     -21.775  -7.341  -8.898  1.00  0.00     0.163 HD
ATOM     66  H   UNL     1     -18.490  -8.530 -11.335  1.00  0.00     0.159 HD
ATOM     67  H   UNL     1     -19.081  -9.705 -10.138  1.00  0.00     0.159 HD
BRANCH  63  68
ATOM     68  NH1 ARG A   5     -19.866  -6.543 -10.428  1.00  0.00    -0.270 NA
ATOM     69  H   UNL     1     -20.502  -5.779 -10.113  1.00  0.00     0.191 HD
ENDBRANCH  63  68
ENDBRANCH  61  62
ENDBRANCH  60  61
ENDBRANCH  59  60
ENDBRANCH  43  59
ENDBRANCH  40  43
ENDBRANCH   1  39
BRANCH   1  70
ATOM     70  CB  LEU A   4     -19.653 -11.691  -1.534  1.00  0.00     0.038 C 
BRANCH  70  71
ATOM     71  CG  LEU A   4     -20.296 -12.956  -0.945  1.00  0.00    -0.015 C 
ATOM     72  CD1 LEU A   4     -19.611 -14.233  -1.461  1.00  0.00     0.007 C 
ATOM     73  CD2 LEU A   4     -20.194 -12.898   0.583  1.00  0.00     0.007 C 
ENDBRANCH  70  71
ENDBRANCH   1  70
TORSDOF 29
