REMARK SMILES N=C(N)NCCC[C@H](NC(=O)CNC(=O)[C@H](Cc1ccc(O)cc1)NC(=O)[C@H](Cc1ccccc1)NC(=O)[C@@H](N)CO)C(=O)N[C@@H](CC(N)=O)C(=O)O
REMARK SMILES IDX 14 1 15 2 13 3 16 5 25 6 26 7 27 8 28 10 36 11 37 12 38 13
REMARK SMILES IDX 39 15 40 16 41 19 42 20 29 22 30 23 31 24 35 25 32 26 34 27
REMARK SMILES IDX 33 28 17 29 18 30 19 31 24 32 20 33 23 34 21 35 22 36 12 38
REMARK SMILES IDX 10 39 9 40 11 41 8 43 43 44 45 45 44 46 46 48 51 49 52 50
REMARK SMILES IDX 53 51 47 53 48 54 49 55 50 56 7 59 6 60 5 61 4 62 2 63 3 64
REMARK SMILES IDX 1 68
REMARK H PARENT 13 4 25 9 36 14 40 17 40 18 42 21 22 37 9 42 45 47 53 52 49 57
REMARK H PARENT 49 58 4 65 3 66 3 67 1 69
ROOT
ATOM      1  C   TYR A   3     -18.394 -10.539  -4.853  1.00  0.00     0.243 C 
ATOM      2  O   TYR A   3     -18.761 -11.389  -5.710  1.00  0.00    -0.273 OA
ATOM      3  N   GLY A   4     -18.816 -10.634  -3.493  1.00  0.00    -0.345 N 
ATOM      4  H   UNL     1     -18.403  -9.990  -2.781  1.00  0.00     0.164 HD
ENDROOT
BRANCH   1   5
ATOM      5  CA  TYR A   3     -17.468  -9.431  -5.234  1.00  0.00     0.175 C 
BRANCH   5   6
ATOM      6  N   TYR A   3     -16.222  -9.998  -5.718  1.00  0.00    -0.342 N 
ATOM      7  C   PHE A   2     -15.259 -10.540  -4.821  1.00  0.00     0.243 C 
ATOM      8  O   PHE A   2     -15.478 -10.574  -3.579  1.00  0.00    -0.273 OA
ATOM      9  H   UNL     1     -16.046 -10.046  -6.748  1.00  0.00     0.164 HD
BRANCH   7  10
ATOM     10  CA  PHE A   2     -13.981 -11.058  -5.384  1.00  0.00     0.175 C 
BRANCH  10  11
ATOM     11  N   PHE A   2     -12.859 -10.483  -4.662  1.00  0.00    -0.343 N 
ATOM     12  C   SER A   1     -12.598  -9.082  -4.704  1.00  0.00     0.239 C 
ATOM     13  O   SER A   1     -13.356  -8.306  -5.351  1.00  0.00    -0.273 OA
ATOM     14  H   UNL     1     -12.224 -11.103  -4.108  1.00  0.00     0.164 HD
BRANCH  12  15
ATOM     15  CA  SER A   1     -11.430  -8.545  -3.932  1.00  0.00     0.167 C 
BRANCH  15  16
ATOM     16  N   SER A   1     -10.863  -7.381  -4.611  1.00  0.00    -0.318 NA
ATOM     17  H   UNL     1     -10.569  -7.670  -5.573  1.00  0.00     0.119 HD
ATOM     18  H   UNL     1      -9.982  -7.111  -4.116  1.00  0.00     0.119 HD
ENDBRANCH  15  16
BRANCH  15  19
ATOM     19  CB  SER A   1     -11.842  -8.204  -2.485  1.00  0.00     0.184 C 
BRANCH  19  20
ATOM     20  OG  SER A   1     -12.062  -6.825  -2.331  1.00  0.00    -0.394 OA
ATOM     21  H   UNL     1     -11.200  -6.420  -2.048  1.00  0.00     0.210 HD
ENDBRANCH  19  20
ENDBRANCH  15  19
ENDBRANCH  12  15
ENDBRANCH  10  11
BRANCH  10  22
ATOM     22  CB  PHE A   2     -13.968 -12.594  -5.328  1.00  0.00     0.070 C 
BRANCH  22  23
ATOM     23  CG  PHE A   2     -12.884 -13.198  -6.184  1.00  0.00    -0.045 A 
ATOM     24  CD1 PHE A   2     -12.723 -12.805  -7.526  1.00  0.00     0.004 A 
ATOM     25  CD2 PHE A   2     -12.093 -14.243  -5.682  1.00  0.00     0.004 A 
ATOM     26  CE1 PHE A   2     -11.747 -13.398  -8.324  1.00  0.00     0.000 A 
ATOM     27  CE2 PHE A   2     -11.134 -14.853  -6.495  1.00  0.00     0.000 A 
ATOM     28  CZ  PHE A   2     -10.955 -14.424  -7.811  1.00  0.00     0.000 A 
ENDBRANCH  22  23
ENDBRANCH  10  22
ENDBRANCH   7  10
ENDBRANCH   5   6
BRANCH   5  29
ATOM     29  CB  TYR A   3     -18.109  -8.513  -6.285  1.00  0.00     0.070 C 
BRANCH  29  30
ATOM     30  CG  TYR A   3     -17.498  -7.136  -6.257  1.00  0.00    -0.045 A 
ATOM     31  CD1 TYR A   3     -17.993  -6.154  -5.384  1.00  0.00     0.007 A 
ATOM     32  CD2 TYR A   3     -16.383  -6.844  -7.060  1.00  0.00     0.007 A 
ATOM     33  CE1 TYR A   3     -17.394  -4.892  -5.330  1.00  0.00     0.046 A 
ATOM     34  CE2 TYR A   3     -15.785  -5.582  -7.003  1.00  0.00     0.046 A 
ATOM     35  CZ  TYR A   3     -16.288  -4.602  -6.141  1.00  0.00     0.115 A 
BRANCH  35  36
ATOM     36  OH  TYR A   3     -15.682  -3.349  -6.095  1.00  0.00    -0.508 OA
ATOM     37  H   UNL     1     -16.022  -2.619  -5.480  1.00  0.00     0.293 HD
ENDBRANCH  35  36
ENDBRANCH  29  30
ENDBRANCH   5  29
ENDBRANCH   1   5
BRANCH   3  38
ATOM     38  CA  GLY A   4     -19.835 -11.563  -3.041  1.00  0.00     0.216 C 
BRANCH  38  39
ATOM     39  C   GLY A   4     -21.163 -11.055  -3.467  1.00  0.00     0.240 C 
ATOM     40  N   ARG A   5     -21.502 -11.138  -4.845  1.00  0.00    -0.343 N 
ATOM     41  O   GLY A   4     -21.959 -10.548  -2.631  1.00  0.00    -0.273 OA
ATOM     42  H   UNL     1     -21.067 -11.907  -5.402  1.00  0.00     0.164 HD
BRANCH  40  43
ATOM     43  CA  ARG A   5     -22.678 -10.496  -5.388  1.00  0.00     0.171 C 
BRANCH  43  44
ATOM     44  C   ARG A   5     -23.896 -11.194  -4.885  1.00  0.00     0.243 C 
ATOM     45  N   ASN A   6     -24.982 -10.402  -4.433  1.00  0.00    -0.341 N 
ATOM     46  O   ARG A   5     -23.964 -12.454  -4.868  1.00  0.00    -0.273 OA
ATOM     47  H   UNL     1     -24.931  -9.364  -4.553  1.00  0.00     0.164 HD
BRANCH  45  48
ATOM     48  CA  ASN A   6     -26.189 -10.994  -3.883  1.00  0.00     0.201 C 
BRANCH  48  49
ATOM     49  C   ASN A   6     -27.052 -11.522  -4.997  1.00  0.00     0.326 C 
ATOM     50  O   ASN A   6     -27.151 -10.892  -6.084  1.00  0.00    -0.250 OA
BRANCH  49  51
ATOM     51  OXT ASN A   6     -27.773 -12.698  -4.811  1.00  0.00    -0.480 OA
ATOM     52  H   UNL     1     -28.370 -13.063  -5.543  1.00  0.00     0.296 HD
ENDBRANCH  49  51
ENDBRANCH  48  49
BRANCH  48  53
ATOM     53  CB  ASN A   6     -26.929  -9.934  -3.062  1.00  0.00     0.136 C 
BRANCH  53  54
ATOM     54  CG  ASN A   6     -28.019 -10.549  -2.252  1.00  0.00     0.220 C 
ATOM     55  ND2 ASN A   6     -27.701 -11.241  -1.053  1.00  0.00    -0.370 N 
ATOM     56  OD1 ASN A   6     -29.213 -10.483  -2.643  1.00  0.00    -0.275 OA
ATOM     57  H   UNL     1     -26.713 -11.314  -0.724  1.00  0.00     0.159 HD
ATOM     58  H   UNL     1     -28.456 -11.688  -0.487  1.00  0.00     0.159 HD
ENDBRANCH  53  54
ENDBRANCH  48  53
ENDBRANCH  45  48
ENDBRANCH  43  44
BRANCH  43  59
ATOM     59  CB  ARG A   5     -22.649 -10.517  -6.916  1.00  0.00     0.037 C 
BRANCH  59  60
ATOM     60  CG  ARG A   5     -21.462  -9.716  -7.460  1.00  0.00     0.024 C 
BRANCH  60  61
ATOM     61  CD  ARG A   5     -21.603  -9.477  -8.964  1.00  0.00     0.116 C 
BRANCH  61  62
ATOM     62  NE  ARG A   5     -21.186  -8.116  -9.285  1.00  0.00    -0.357 N 
ATOM     63  CZ  ARG A   5     -20.069  -7.777 -10.102  1.00  0.00     0.185 C 
ATOM     64  NH2 ARG A   5     -19.197  -8.780 -10.616  1.00  0.00    -0.370 N 
ATOM     65  H   UNL     1     -21.768  -7.335  -8.903  1.00  0.00     0.163 HD
ATOM     66  H   UNL     1     -19.096  -9.715 -10.168  1.00  0.00     0.159 HD
ATOM     67  H   UNL     1     -18.497  -8.536 -11.352  1.00  0.00     0.159 HD
BRANCH  63  68
ATOM     68  NH1 ARG A   5     -19.848  -6.531 -10.378  1.00  0.00    -0.270 NA
ATOM     69  H   UNL     1     -19.042  -6.232 -10.971  1.00  0.00     0.191 HD
ENDBRANCH  63  68
ENDBRANCH  61  62
ENDBRANCH  60  61
ENDBRANCH  59  60
ENDBRANCH  43  59
ENDBRANCH  40  43
ENDBRANCH  38  39
ENDBRANCH   3  38
TORSDOF 27
