REMARK SMILES N=C(N)NCCC[C@H](NC(=O)[C@H](CCC(N)=O)NC(=O)[C@@H]1CCCN1C(=O)[C@H](Cc1ccccc1)NC(=O)[C@@H](N)CO)C(=O)N[C@@H](CC(N)=O)C(=O)O
REMARK SMILES IDX 19 1 20 2 18 3 21 5 25 6 24 7 22 8 23 9 26 10 27 11 28 12
REMARK SMILES IDX 36 13 37 14 38 15 39 17 40 18 41 21 42 22 29 24 30 25 31 26
REMARK SMILES IDX 35 27 32 28 34 29 33 30 12 31 10 32 9 33 11 34 8 36 43 37
REMARK SMILES IDX 45 38 44 39 46 41 51 42 52 43 53 44 47 46 48 47 49 48 50 49
REMARK SMILES IDX 7 52 6 53 5 54 4 55 2 56 3 57 1 61 13 63 14 64 15 65 16 66
REMARK SMILES IDX 17 67
REMARK H PARENT 18 4 36 16 40 19 40 20 42 23 9 35 45 40 53 45 49 50 49 51 4 58
REMARK H PARENT 3 59 3 60 1 62 16 68 16 69
ROOT
ATOM      1  C   PRO A   3     -18.360 -10.545  -4.884  1.00  0.00     0.243 C 
ATOM      2  O   PRO A   3     -18.765 -11.393  -5.725  1.00  0.00    -0.273 OA
ATOM      3  N   GLN A   4     -18.827 -10.568  -3.536  1.00  0.00    -0.342 N 
ATOM      4  H   UNL     1     -18.534  -9.790  -2.901  1.00  0.00     0.164 HD
ENDROOT
BRANCH   1   5
ATOM      5  CA  PRO A   3     -17.375  -9.483  -5.280  1.00  0.00     0.174 C 
ATOM      6  N   PRO A   3     -16.575  -9.904  -6.425  1.00  0.00    -0.329 N 
ATOM      7  CD  PRO A   3     -16.843  -9.115  -7.616  1.00  0.00     0.120 C 
ATOM      8  CB  PRO A   3     -18.082  -8.202  -5.721  1.00  0.00     0.037 C 
ATOM      9  CG  PRO A   3     -17.962  -8.154  -7.241  1.00  0.00     0.024 C 
BRANCH   6  10
ATOM     10  C   PHE A   2     -15.608 -10.975  -6.425  1.00  0.00     0.246 C 
ATOM     11  O   PHE A   2     -15.213 -11.432  -7.531  1.00  0.00    -0.272 OA
BRANCH  10  12
ATOM     12  CA  PHE A   2     -15.038 -11.532  -5.131  1.00  0.00     0.176 C 
BRANCH  12  13
ATOM     13  N   PHE A   2     -14.570 -12.923  -5.259  1.00  0.00    -0.343 N 
ATOM     14  C   SER A   1     -13.489 -13.396  -6.088  1.00  0.00     0.239 C 
ATOM     15  O   SER A   1     -12.956 -12.641  -6.944  1.00  0.00    -0.273 OA
ATOM     16  H   UNL     1     -15.062 -13.627  -4.666  1.00  0.00     0.164 HD
BRANCH  14  17
ATOM     17  CA  SER A   1     -12.990 -14.817  -5.967  1.00  0.00     0.167 C 
BRANCH  17  18
ATOM     18  N   SER A   1     -12.495 -15.089  -4.615  1.00  0.00    -0.318 NA
ATOM     19  H   UNL     1     -13.263 -14.951  -3.918  1.00  0.00     0.119 HD
ATOM     20  H   UNL     1     -11.739 -14.400  -4.389  1.00  0.00     0.119 HD
ENDBRANCH  17  18
BRANCH  17  21
ATOM     21  CB  SER A   1     -14.085 -15.821  -6.359  1.00  0.00     0.184 C 
BRANCH  21  22
ATOM     22  OG  SER A   1     -13.557 -17.119  -6.430  1.00  0.00    -0.394 OA
ATOM     23  H   UNL     1     -13.523 -17.465  -5.499  1.00  0.00     0.210 HD
ENDBRANCH  21  22
ENDBRANCH  17  21
ENDBRANCH  14  17
ENDBRANCH  12  13
BRANCH  12  24
ATOM     24  CB  PHE A   2     -13.987 -10.616  -4.455  1.00  0.00     0.070 C 
BRANCH  24  25
ATOM     25  CG  PHE A   2     -12.793 -10.256  -5.306  1.00  0.00    -0.045 A 
ATOM     26  CD1 PHE A   2     -11.547 -10.865  -5.077  1.00  0.00     0.004 A 
ATOM     27  CD2 PHE A   2     -12.902  -9.273  -6.306  1.00  0.00     0.004 A 
ATOM     28  CE1 PHE A   2     -10.440 -10.523  -5.861  1.00  0.00     0.000 A 
ATOM     29  CE2 PHE A   2     -11.792  -8.934  -7.086  1.00  0.00     0.000 A 
ATOM     30  CZ  PHE A   2     -10.563  -9.562  -6.867  1.00  0.00     0.000 A 
ENDBRANCH  24  25
ENDBRANCH  12  24
ENDBRANCH  10  12
ENDBRANCH   6  10
ENDBRANCH   1   5
BRANCH   3  31
ATOM     31  CA  GLN A   4     -19.806 -11.531  -3.055  1.00  0.00     0.171 C 
BRANCH  31  32
ATOM     32  C   GLN A   4     -21.162 -11.053  -3.465  1.00  0.00     0.243 C 
ATOM     33  N   ARG A   5     -21.503 -11.141  -4.842  1.00  0.00    -0.343 N 
ATOM     34  O   GLN A   4     -21.967 -10.546  -2.636  1.00  0.00    -0.273 OA
ATOM     35  H   UNL     1     -21.072 -11.913  -5.398  1.00  0.00     0.164 HD
BRANCH  33  36
ATOM     36  CA  ARG A   5     -22.678 -10.497  -5.386  1.00  0.00     0.171 C 
BRANCH  36  37
ATOM     37  C   ARG A   5     -23.896 -11.195  -4.885  1.00  0.00     0.243 C 
ATOM     38  N   ASN A   6     -24.981 -10.402  -4.433  1.00  0.00    -0.341 N 
ATOM     39  O   ARG A   5     -23.965 -12.455  -4.868  1.00  0.00    -0.273 OA
ATOM     40  H   UNL     1     -24.930  -9.364  -4.553  1.00  0.00     0.164 HD
BRANCH  38  41
ATOM     41  CA  ASN A   6     -26.189 -10.994  -3.884  1.00  0.00     0.201 C 
BRANCH  41  42
ATOM     42  C   ASN A   6     -27.052 -11.521  -4.998  1.00  0.00     0.326 C 
ATOM     43  O   ASN A   6     -27.151 -10.889  -6.084  1.00  0.00    -0.250 OA
BRANCH  42  44
ATOM     44  OXT ASN A   6     -27.772 -12.697  -4.815  1.00  0.00    -0.480 OA
ATOM     45  H   UNL     1     -28.370 -13.059  -5.548  1.00  0.00     0.296 HD
ENDBRANCH  42  44
ENDBRANCH  41  42
BRANCH  41  46
ATOM     46  CB  ASN A   6     -26.929  -9.935  -3.062  1.00  0.00     0.136 C 
BRANCH  46  47
ATOM     47  CG  ASN A   6     -28.018 -10.551  -2.251  1.00  0.00     0.220 C 
ATOM     48  ND2 ASN A   6     -27.700 -11.242  -1.053  1.00  0.00    -0.370 N 
ATOM     49  OD1 ASN A   6     -29.213 -10.485  -2.641  1.00  0.00    -0.275 OA
ATOM     50  H   UNL     1     -28.454 -11.689  -0.485  1.00  0.00     0.159 HD
ATOM     51  H   UNL     1     -26.712 -11.314  -0.724  1.00  0.00     0.159 HD
ENDBRANCH  46  47
ENDBRANCH  41  46
ENDBRANCH  38  41
ENDBRANCH  36  37
BRANCH  36  52
ATOM     52  CB  ARG A   5     -22.650 -10.515  -6.914  1.00  0.00     0.037 C 
BRANCH  52  53
ATOM     53  CG  ARG A   5     -21.457  -9.724  -7.459  1.00  0.00     0.024 C 
BRANCH  53  54
ATOM     54  CD  ARG A   5     -21.604  -9.479  -8.963  1.00  0.00     0.116 C 
BRANCH  54  55
ATOM     55  NE  ARG A   5     -21.187  -8.118  -9.285  1.00  0.00    -0.357 N 
ATOM     56  CZ  ARG A   5     -20.075  -7.777 -10.110  1.00  0.00     0.185 C 
ATOM     57  NH2 ARG A   5     -19.201  -8.779 -10.626  1.00  0.00    -0.370 N 
ATOM     58  H   UNL     1     -21.766  -7.337  -8.898  1.00  0.00     0.163 HD
ATOM     59  H   UNL     1     -18.490  -8.527 -11.349  1.00  0.00     0.159 HD
ATOM     60  H   UNL     1     -19.116  -9.725 -10.199  1.00  0.00     0.159 HD
BRANCH  56  61
ATOM     61  NH1 ARG A   5     -19.853  -6.531 -10.380  1.00  0.00    -0.270 NA
ATOM     62  H   UNL     1     -19.048  -6.230 -10.973  1.00  0.00     0.191 HD
ENDBRANCH  56  61
ENDBRANCH  54  55
ENDBRANCH  53  54
ENDBRANCH  52  53
ENDBRANCH  36  52
ENDBRANCH  33  36
ENDBRANCH  31  32
BRANCH  31  63
ATOM     63  CB  GLN A   4     -19.654 -11.692  -1.530  1.00  0.00     0.045 C 
BRANCH  63  64
ATOM     64  CG  GLN A   4     -20.313 -12.960  -0.980  1.00  0.00     0.102 C 
BRANCH  64  65
ATOM     65  CD  GLN A   4     -19.611 -14.198  -1.465  1.00  0.00     0.217 C 
ATOM     66  NE2 GLN A   4     -20.174 -14.988  -2.512  1.00  0.00    -0.370 N 
ATOM     67  OE1 GLN A   4     -18.508 -14.532  -0.955  1.00  0.00    -0.275 OA
ATOM     68  H   UNL     1     -19.678 -15.842  -2.852  1.00  0.00     0.159 HD
ATOM     69  H   UNL     1     -21.078 -14.718  -2.957  1.00  0.00     0.159 HD
ENDBRANCH  64  65
ENDBRANCH  63  64
ENDBRANCH  31  63
ENDBRANCH   3  31
TORSDOF 27
