REMARK SMILES CC(C)C[C@H](NC(=O)[C@H](Cc1ccccc1)NC(=O)[C@@H](N)CO)C(=O)NCC(=O)N[C@@H](CCCNC(=N)N)C(=O)N[C@@H](CCC(N)=O)C(=O)O
REMARK SMILES IDX 24 1 25 2 26 3 5 5 6 6 7 7 8 8 9 10 17 11 18 12 19 13 20 15
REMARK SMILES IDX 21 16 22 19 23 20 10 22 11 23 12 24 16 25 13 26 15 27 14 28
REMARK SMILES IDX 4 29 2 30 1 31 3 32 27 33 28 34 30 35 29 36 31 38 39 39
REMARK SMILES IDX 41 40 40 41 42 43 48 44 49 45 50 46 43 48 44 49 45 50 46 51
REMARK SMILES IDX 47 52 32 55 33 56 34 57 35 58 36 59 38 60 37 64
REMARK H PARENT 26 4 6 9 17 14 21 17 21 18 23 21 30 37 41 42 50 47 46 53 46 54
REMARK H PARENT 35 61 38 62 38 63 37 65
ROOT
ATOM      1  C   LEU A   3     -18.391 -10.560  -4.852  1.00  0.00     0.243 C 
ATOM      2  O   LEU A   3     -18.765 -11.403  -5.711  1.00  0.00    -0.273 OA
ATOM      3  N   GLY A   4     -18.819 -10.647  -3.493  1.00  0.00    -0.345 N 
ATOM      4  H   UNL     1     -18.407 -10.005  -2.779  1.00  0.00     0.164 HD
ENDROOT
BRANCH   1   5
ATOM      5  CA  LEU A   3     -17.462  -9.459  -5.229  1.00  0.00     0.171 C 
BRANCH   5   6
ATOM      6  N   LEU A   3     -16.220 -10.018  -5.721  1.00  0.00    -0.343 N 
ATOM      7  C   PHE A   2     -15.253 -10.547  -4.823  1.00  0.00     0.243 C 
ATOM      8  O   PHE A   2     -15.470 -10.578  -3.580  1.00  0.00    -0.273 OA
ATOM      9  H   UNL     1     -16.047 -10.066  -6.751  1.00  0.00     0.164 HD
BRANCH   7  10
ATOM     10  CA  PHE A   2     -13.976 -11.060  -5.384  1.00  0.00     0.175 C 
BRANCH  10  11
ATOM     11  N   PHE A   2     -12.856 -10.484  -4.661  1.00  0.00    -0.343 N 
ATOM     12  C   SER A   1     -12.596  -9.082  -4.703  1.00  0.00     0.239 C 
ATOM     13  O   SER A   1     -13.355  -8.307  -5.349  1.00  0.00    -0.273 OA
ATOM     14  H   UNL     1     -12.220 -11.104  -4.107  1.00  0.00     0.164 HD
BRANCH  12  15
ATOM     15  CA  SER A   1     -11.429  -8.546  -3.932  1.00  0.00     0.167 C 
BRANCH  15  16
ATOM     16  N   SER A   1     -10.863  -7.381  -4.610  1.00  0.00    -0.318 NA
ATOM     17  H   UNL     1     -10.541  -7.676  -5.561  1.00  0.00     0.119 HD
ATOM     18  H   UNL     1     -10.001  -7.089  -4.094  1.00  0.00     0.119 HD
ENDBRANCH  15  16
BRANCH  15  19
ATOM     19  CB  SER A   1     -11.840  -8.203  -2.486  1.00  0.00     0.184 C 
BRANCH  19  20
ATOM     20  OG  SER A   1     -12.064  -6.827  -2.332  1.00  0.00    -0.394 OA
ATOM     21  H   UNL     1     -12.954  -6.642  -2.733  1.00  0.00     0.210 HD
ENDBRANCH  19  20
ENDBRANCH  15  19
ENDBRANCH  12  15
ENDBRANCH  10  11
BRANCH  10  22
ATOM     22  CB  PHE A   2     -13.964 -12.596  -5.327  1.00  0.00     0.070 C 
BRANCH  22  23
ATOM     23  CG  PHE A   2     -12.882 -13.199  -6.184  1.00  0.00    -0.045 A 
ATOM     24  CD1 PHE A   2     -12.722 -12.807  -7.527  1.00  0.00     0.004 A 
ATOM     25  CD2 PHE A   2     -12.091 -14.244  -5.683  1.00  0.00     0.004 A 
ATOM     26  CE1 PHE A   2     -11.747 -13.399  -8.324  1.00  0.00     0.000 A 
ATOM     27  CE2 PHE A   2     -11.133 -14.854  -6.496  1.00  0.00     0.000 A 
ATOM     28  CZ  PHE A   2     -10.954 -14.424  -7.812  1.00  0.00     0.000 A 
ENDBRANCH  22  23
ENDBRANCH  10  22
ENDBRANCH   7  10
ENDBRANCH   5   6
BRANCH   5  29
ATOM     29  CB  LEU A   3     -18.107  -8.529  -6.265  1.00  0.00     0.038 C 
BRANCH  29  30
ATOM     30  CG  LEU A   3     -17.545  -7.095  -6.219  1.00  0.00    -0.015 C 
ATOM     31  CD1 LEU A   3     -18.188  -6.268  -7.335  1.00  0.00     0.007 C 
ATOM     32  CD2 LEU A   3     -17.810  -6.422  -4.859  1.00  0.00     0.007 C 
ENDBRANCH  29  30
ENDBRANCH   5  29
ENDBRANCH   1   5
BRANCH   3  33
ATOM     33  CA  GLY A   4     -19.842 -11.571  -3.040  1.00  0.00     0.216 C 
BRANCH  33  34
ATOM     34  C   GLY A   4     -21.166 -11.056  -3.467  1.00  0.00     0.240 C 
ATOM     35  N   ARG A   5     -21.503 -11.137  -4.845  1.00  0.00    -0.343 N 
ATOM     36  O   GLY A   4     -21.960 -10.547  -2.631  1.00  0.00    -0.273 OA
ATOM     37  H   UNL     1     -21.071 -11.907  -5.402  1.00  0.00     0.164 HD
BRANCH  35  38
ATOM     38  CA  ARG A   5     -22.680 -10.495  -5.387  1.00  0.00     0.171 C 
BRANCH  38  39
ATOM     39  C   ARG A   5     -23.898 -11.194  -4.884  1.00  0.00     0.243 C 
ATOM     40  N   GLN A   6     -24.983 -10.405  -4.425  1.00  0.00    -0.341 N 
ATOM     41  O   ARG A   5     -23.965 -12.455  -4.869  1.00  0.00    -0.273 OA
ATOM     42  H   UNL     1     -24.933  -9.366  -4.537  1.00  0.00     0.164 HD
BRANCH  40  43
ATOM     43  CA  GLN A   6     -26.190 -11.003  -3.879  1.00  0.00     0.192 C 
BRANCH  43  44
ATOM     44  C   GLN A   6     -27.051 -11.525  -4.998  1.00  0.00     0.326 C 
ATOM     45  O   GLN A   6     -27.152 -10.886  -6.080  1.00  0.00    -0.250 OA
BRANCH  44  46
ATOM     46  OXT GLN A   6     -27.756 -12.712  -4.828  1.00  0.00    -0.480 OA
ATOM     47  H   UNL     1     -28.347 -13.075  -5.566  1.00  0.00     0.296 HD
ENDBRANCH  44  46
ENDBRANCH  43  44
BRANCH  43  48
ATOM     48  CB  GLN A   6     -26.929  -9.954  -3.038  1.00  0.00     0.047 C 
BRANCH  48  49
ATOM     49  CG  GLN A   6     -28.063 -10.573  -2.222  1.00  0.00     0.102 C 
BRANCH  49  50
ATOM     50  CD  GLN A   6     -28.729  -9.531  -1.375  1.00  0.00     0.217 C 
ATOM     51  NE2 GLN A   6     -29.741  -8.690  -1.927  1.00  0.00    -0.370 N 
ATOM     52  OE1 GLN A   6     -28.366  -9.370  -0.179  1.00  0.00    -0.275 OA
ATOM     53  H   UNL     1     -30.035  -8.795  -2.924  1.00  0.00     0.159 HD
ATOM     54  H   UNL     1     -30.194  -7.955  -1.340  1.00  0.00     0.159 HD
ENDBRANCH  49  50
ENDBRANCH  48  49
ENDBRANCH  43  48
ENDBRANCH  40  43
ENDBRANCH  38  39
BRANCH  38  55
ATOM     55  CB  ARG A   5     -22.651 -10.516  -6.916  1.00  0.00     0.037 C 
BRANCH  55  56
ATOM     56  CG  ARG A   5     -21.462  -9.718  -7.459  1.00  0.00     0.024 C 
BRANCH  56  57
ATOM     57  CD  ARG A   5     -21.602  -9.480  -8.963  1.00  0.00     0.116 C 
BRANCH  57  58
ATOM     58  NE  ARG A   5     -21.190  -8.117  -9.282  1.00  0.00    -0.357 N 
ATOM     59  CZ  ARG A   5     -20.075  -7.775 -10.105  1.00  0.00     0.185 C 
ATOM     60  NH2 ARG A   5     -19.200  -8.774 -10.616  1.00  0.00    -0.370 N 
ATOM     61  H   UNL     1     -21.775  -7.342  -8.894  1.00  0.00     0.163 HD
ATOM     62  H   UNL     1     -18.494  -8.517 -11.341  1.00  0.00     0.159 HD
ATOM     63  H   UNL     1     -19.097  -9.710 -10.171  1.00  0.00     0.159 HD
BRANCH  59  64
ATOM     64  NH1 ARG A   5     -19.847  -6.533 -10.392  1.00  0.00    -0.270 NA
ATOM     65  H   UNL     1     -20.457  -5.762 -10.039  1.00  0.00     0.191 HD
ENDBRANCH  59  64
ENDBRANCH  57  58
ENDBRANCH  56  57
ENDBRANCH  55  56
ENDBRANCH  38  55
ENDBRANCH  35  38
ENDBRANCH  33  34
ENDBRANCH   3  33
TORSDOF 27
