REMARK SMILES N=C(N)NCCC[C@H](NC(=O)[C@@H]1CCCN1C(=O)[C@H](Cc1c[nH]cn1)NC(=O)[C@H](Cc1ccccc1)NC(=O)[C@@H](N)CO)C(=O)N[C@@H](CC(N)=O)C(=O)O
REMARK SMILES IDX 16 1 12 2 13 3 14 4 15 5 17 6 18 7 19 8 26 9 27 10 28 11
REMARK SMILES IDX 29 13 37 14 38 15 39 16 40 18 41 19 42 22 43 23 30 25 31 26
REMARK SMILES IDX 32 27 36 28 33 29 35 30 34 31 20 32 21 33 25 34 22 35 24 36
REMARK SMILES IDX 23 37 10 39 9 40 11 41 8 43 44 44 46 45 45 46 47 48 52 49
REMARK SMILES IDX 53 50 54 51 48 53 49 54 50 55 51 56 7 59 6 60 5 61 4 62 2 63
REMARK SMILES IDX 3 64 1 68
REMARK H PARENT 26 12 37 17 41 20 41 21 43 24 23 38 9 42 46 47 54 52 50 57
REMARK H PARENT 50 58 4 65 3 66 3 67 1 69
ROOT
ATOM      1  N   PRO A   4     -18.917 -10.666  -3.519  1.00  0.00    -0.329 N 
ATOM      2  CA  PRO A   4     -19.271 -11.944  -2.913  1.00  0.00     0.174 C 
ATOM      3  CB  PRO A   4     -19.610 -11.626  -1.453  1.00  0.00     0.037 C 
ATOM      4  CG  PRO A   4     -19.848 -10.120  -1.404  1.00  0.00     0.024 C 
ATOM      5  CD  PRO A   4     -19.112  -9.547  -2.608  1.00  0.00     0.120 C 
ENDROOT
BRANCH   1   6
ATOM      6  C   HIS A   3     -18.430 -10.546  -4.861  1.00  0.00     0.246 C 
ATOM      7  O   HIS A   3     -18.785 -11.384  -5.734  1.00  0.00    -0.272 OA
BRANCH   6   8
ATOM      8  CA  HIS A   3     -17.484  -9.438  -5.229  1.00  0.00     0.177 C 
BRANCH   8   9
ATOM      9  N   HIS A   3     -16.235 -10.008  -5.711  1.00  0.00    -0.342 N 
ATOM     10  C   PHE A   2     -15.266 -10.543  -4.816  1.00  0.00     0.243 C 
ATOM     11  O   PHE A   2     -15.481 -10.575  -3.573  1.00  0.00    -0.273 OA
ATOM     12  H   UNL     1     -16.055 -10.051  -6.740  1.00  0.00     0.164 HD
BRANCH  10  13
ATOM     13  CA  PHE A   2     -13.987 -11.059  -5.382  1.00  0.00     0.175 C 
BRANCH  13  14
ATOM     14  N   PHE A   2     -12.862 -10.484  -4.663  1.00  0.00    -0.343 N 
ATOM     15  C   SER A   1     -12.604  -9.082  -4.708  1.00  0.00     0.239 C 
ATOM     16  O   SER A   1     -13.365  -8.312  -5.357  1.00  0.00    -0.273 OA
ATOM     17  H   UNL     1     -12.227 -11.102  -4.108  1.00  0.00     0.164 HD
BRANCH  15  18
ATOM     18  CA  SER A   1     -11.437  -8.539  -3.935  1.00  0.00     0.167 C 
BRANCH  18  19
ATOM     19  N   SER A   1     -10.843  -7.381  -4.606  1.00  0.00    -0.318 NA
ATOM     20  H   UNL     1     -10.466  -7.691  -5.532  1.00  0.00     0.119 HD
ATOM     21  H   UNL     1     -11.571  -6.654  -4.796  1.00  0.00     0.119 HD
ENDBRANCH  18  19
BRANCH  18  22
ATOM     22  CB  SER A   1     -11.838  -8.202  -2.487  1.00  0.00     0.184 C 
BRANCH  22  23
ATOM     23  OG  SER A   1     -12.060  -6.827  -2.322  1.00  0.00    -0.394 OA
ATOM     24  H   UNL     1     -12.974  -6.650  -2.667  1.00  0.00     0.210 HD
ENDBRANCH  22  23
ENDBRANCH  18  22
ENDBRANCH  15  18
ENDBRANCH  13  14
BRANCH  13  25
ATOM     25  CB  PHE A   2     -13.971 -12.595  -5.327  1.00  0.00     0.070 C 
BRANCH  25  26
ATOM     26  CG  PHE A   2     -12.885 -13.196  -6.184  1.00  0.00    -0.045 A 
ATOM     27  CD1 PHE A   2     -12.723 -12.804  -7.526  1.00  0.00     0.004 A 
ATOM     28  CD2 PHE A   2     -12.094 -14.241  -5.682  1.00  0.00     0.004 A 
ATOM     29  CE1 PHE A   2     -11.748 -13.397  -8.324  1.00  0.00     0.000 A 
ATOM     30  CE2 PHE A   2     -11.136 -14.852  -6.495  1.00  0.00     0.000 A 
ATOM     31  CZ  PHE A   2     -10.958 -14.423  -7.812  1.00  0.00     0.000 A 
ENDBRANCH  25  26
ENDBRANCH  13  25
ENDBRANCH  10  13
ENDBRANCH   8   9
BRANCH   8  32
ATOM     32  CB  HIS A   3     -18.110  -8.516  -6.285  1.00  0.00     0.093 C 
BRANCH  32  33
ATOM     33  CG  HIS A   3     -17.504  -7.144  -6.247  1.00  0.00     0.061 A 
ATOM     34  ND1 HIS A   3     -16.409  -6.787  -6.946  1.00  0.00    -0.242 NA
ATOM     35  CD2 HIS A   3     -17.911  -6.101  -5.445  1.00  0.00     0.107 A 
ATOM     36  CE1 HIS A   3     -16.183  -5.512  -6.564  1.00  0.00     0.196 A 
ATOM     37  NE2 HIS A   3     -17.076  -5.073  -5.656  1.00  0.00    -0.351 N 
ATOM     38  H   UNL     1     -17.105  -4.133  -5.204  1.00  0.00     0.167 HD
ENDBRANCH  32  33
ENDBRANCH   8  32
ENDBRANCH   6   8
ENDBRANCH   1   6
BRANCH   2  39
ATOM     39  C   PRO A   4     -20.439 -12.585  -3.618  1.00  0.00     0.243 C 
ATOM     40  N   ARG A   5     -21.646 -11.844  -3.868  1.00  0.00    -0.343 N 
ATOM     41  O   PRO A   4     -20.352 -13.792  -3.971  1.00  0.00    -0.273 OA
ATOM     42  H   UNL     1     -21.624 -10.811  -3.721  1.00  0.00     0.164 HD
BRANCH  40  43
ATOM     43  CA  ARG A   5     -22.870 -12.494  -4.354  1.00  0.00     0.171 C 
BRANCH  43  44
ATOM     44  C   ARG A   5     -23.873 -11.489  -4.876  1.00  0.00     0.243 C 
ATOM     45  N   ASN A   6     -24.204 -10.304  -4.131  1.00  0.00    -0.341 N 
ATOM     46  O   ARG A   5     -24.449 -11.719  -5.974  1.00  0.00    -0.273 OA
ATOM     47  H   UNL     1     -23.730 -10.126  -3.217  1.00  0.00     0.164 HD
BRANCH  45  48
ATOM     48  CA  ASN A   6     -25.180  -9.327  -4.621  1.00  0.00     0.201 C 
BRANCH  48  49
ATOM     49  C   ASN A   6     -24.564  -8.511  -5.722  1.00  0.00     0.326 C 
ATOM     50  O   ASN A   6     -23.457  -7.933  -5.543  1.00  0.00    -0.250 OA
BRANCH  49  51
ATOM     51  OXT ASN A   6     -25.225  -8.381  -6.939  1.00  0.00    -0.480 OA
ATOM     52  H   UNL     1     -24.824  -7.831  -7.690  1.00  0.00     0.296 HD
ENDBRANCH  49  51
ENDBRANCH  48  49
BRANCH  48  53
ATOM     53  CB  ASN A   6     -25.654  -8.422  -3.469  1.00  0.00     0.136 C 
BRANCH  53  54
ATOM     54  CG  ASN A   6     -26.774  -7.518  -3.900  1.00  0.00     0.220 C 
ATOM     55  ND2 ASN A   6     -28.096  -8.032  -4.059  1.00  0.00    -0.370 N 
ATOM     56  OD1 ASN A   6     -26.542  -6.302  -4.144  1.00  0.00    -0.275 OA
ATOM     57  H   UNL     1     -28.301  -9.038  -3.868  1.00  0.00     0.159 HD
ATOM     58  H   UNL     1     -28.870  -7.409  -4.381  1.00  0.00     0.159 HD
ENDBRANCH  53  54
ENDBRANCH  48  53
ENDBRANCH  45  48
ENDBRANCH  43  44
BRANCH  43  59
ATOM     59  CB  ARG A   5     -23.486 -13.417  -3.278  1.00  0.00     0.037 C 
BRANCH  59  60
ATOM     60  CG  ARG A   5     -23.890 -12.687  -1.984  1.00  0.00     0.024 C 
BRANCH  60  61
ATOM     61  CD  ARG A   5     -24.236 -13.663  -0.852  1.00  0.00     0.116 C 
BRANCH  61  62
ATOM     62  NE  ARG A   5     -25.417 -14.462  -1.191  1.00  0.00    -0.357 N 
ATOM     63  CZ  ARG A   5     -25.422 -15.871  -1.486  1.00  0.00     0.185 C 
ATOM     64  NH2 ARG A   5     -26.669 -16.563  -1.546  1.00  0.00    -0.370 N 
ATOM     65  H   UNL     1     -26.337 -13.965  -1.185  1.00  0.00     0.163 HD
ATOM     66  H   UNL     1     -27.568 -16.057  -1.380  1.00  0.00     0.159 HD
ATOM     67  H   UNL     1     -26.699 -17.586  -1.768  1.00  0.00     0.159 HD
BRANCH  63  68
ATOM     68  NH1 ARG A   5     -24.330 -16.528  -1.727  1.00  0.00    -0.270 NA
ATOM     69  H   UNL     1     -23.376 -16.110  -1.735  1.00  0.00     0.191 HD
ENDBRANCH  63  68
ENDBRANCH  61  62
ENDBRANCH  60  61
ENDBRANCH  59  60
ENDBRANCH  43  59
ENDBRANCH  40  43
ENDBRANCH   2  39
TORSDOF 26
