REMARK SMILES CC(C)C[C@H](NC(=O)CNC(=O)[C@@H](N)CO)C(=O)N[C@@H](CCCNC(=N)N)C(=O)N[C@@H](CCCNC(=N)N)C(=O)N[C@@H](CC(N)=O)C(=O)O
REMARK SMILES IDX 17 1 18 2 19 3 5 5 6 6 7 7 8 8 9 10 10 11 11 12 12 13 13 15
REMARK SMILES IDX 14 16 15 19 16 20 4 22 2 23 1 24 3 25 20 26 28 27 30 28
REMARK SMILES IDX 29 29 31 31 39 32 41 33 40 34 42 36 47 37 48 38 49 39 43 41
REMARK SMILES IDX 44 42 45 43 46 44 32 47 33 48 34 49 35 50 36 51 38 52 37 56
REMARK SMILES IDX 21 58 22 59 23 60 24 61 25 62 27 63 26 67
REMARK H PARENT 19 4 6 9 10 14 14 17 14 18 16 21 30 30 41 35 49 40 45 45 45 46
REMARK H PARENT 35 53 38 54 38 55 37 57 24 64 27 65 27 66 26 68
ROOT
ATOM      1  C   LEU A   3     -18.378 -10.548  -4.867  1.00  0.00     0.243 C 
ATOM      2  O   LEU A   3     -18.748 -11.406  -5.714  1.00  0.00    -0.273 OA
ATOM      3  N   ARG A   4     -18.843 -10.583  -3.522  1.00  0.00    -0.343 N 
ATOM      4  H   UNL     1     -18.585  -9.797  -2.881  1.00  0.00     0.164 HD
ENDROOT
BRANCH   1   5
ATOM      5  CA  LEU A   3     -17.441  -9.458  -5.249  1.00  0.00     0.171 C 
BRANCH   5   6
ATOM      6  N   LEU A   3     -16.200 -10.024  -5.739  1.00  0.00    -0.343 N 
ATOM      7  C   GLY A   2     -15.247 -10.572  -4.836  1.00  0.00     0.240 C 
ATOM      8  O   GLY A   2     -15.471 -10.590  -3.593  1.00  0.00    -0.273 OA
ATOM      9  H   UNL     1     -15.996 -10.029  -6.765  1.00  0.00     0.164 HD
BRANCH   7  10
ATOM     10  CA  GLY A   2     -13.966 -11.105  -5.374  1.00  0.00     0.216 C 
BRANCH  10  11
ATOM     11  N   GLY A   2     -12.850 -10.492  -4.679  1.00  0.00    -0.346 N 
ATOM     12  C   SER A   1     -12.605  -9.087  -4.719  1.00  0.00     0.239 C 
ATOM     13  O   SER A   1     -13.373  -8.321  -5.364  1.00  0.00    -0.273 OA
ATOM     14  H   UNL     1     -12.219 -11.107  -4.118  1.00  0.00     0.164 HD
BRANCH  12  15
ATOM     15  CA  SER A   1     -11.444  -8.538  -3.939  1.00  0.00     0.167 C 
BRANCH  15  16
ATOM     16  N   SER A   1     -10.850  -7.381  -4.611  1.00  0.00    -0.318 NA
ATOM     17  H   UNL     1     -11.579  -6.653  -4.795  1.00  0.00     0.119 HD
ATOM     18  H   UNL     1     -10.480  -7.688  -5.540  1.00  0.00     0.119 HD
ENDBRANCH  15  16
BRANCH  15  19
ATOM     19  CB  SER A   1     -11.850  -8.202  -2.489  1.00  0.00     0.184 C 
BRANCH  19  20
ATOM     20  OG  SER A   1     -12.054  -6.824  -2.319  1.00  0.00    -0.394 OA
ATOM     21  H   UNL     1     -11.169  -6.423  -2.109  1.00  0.00     0.210 HD
ENDBRANCH  19  20
ENDBRANCH  15  19
ENDBRANCH  12  15
ENDBRANCH  10  11
ENDBRANCH   7  10
ENDBRANCH   5   6
BRANCH   5  22
ATOM     22  CB  LEU A   3     -18.091  -8.527  -6.280  1.00  0.00     0.038 C 
BRANCH  22  23
ATOM     23  CG  LEU A   3     -17.541  -7.090  -6.223  1.00  0.00    -0.015 C 
ATOM     24  CD1 LEU A   3     -18.189  -6.262  -7.337  1.00  0.00     0.007 C 
ATOM     25  CD2 LEU A   3     -17.814  -6.425  -4.860  1.00  0.00     0.007 C 
ENDBRANCH  22  23
ENDBRANCH   5  22
ENDBRANCH   1   5
BRANCH   3  26
ATOM     26  CA  ARG A   4     -19.819 -11.544  -3.052  1.00  0.00     0.171 C 
BRANCH  26  27
ATOM     27  C   ARG A   4     -21.170 -11.058  -3.463  1.00  0.00     0.243 C 
ATOM     28  N   ARG A   5     -21.505 -11.140  -4.842  1.00  0.00    -0.343 N 
ATOM     29  O   ARG A   4     -21.973 -10.546  -2.635  1.00  0.00    -0.273 OA
ATOM     30  H   UNL     1     -21.063 -11.901  -5.403  1.00  0.00     0.164 HD
BRANCH  28  31
ATOM     31  CA  ARG A   5     -22.679 -10.497  -5.387  1.00  0.00     0.171 C 
BRANCH  31  32
ATOM     32  C   ARG A   5     -23.897 -11.195  -4.885  1.00  0.00     0.243 C 
ATOM     33  N   ASN A   6     -24.982 -10.402  -4.433  1.00  0.00    -0.341 N 
ATOM     34  O   ARG A   5     -23.965 -12.455  -4.867  1.00  0.00    -0.273 OA
ATOM     35  H   UNL     1     -24.931  -9.364  -4.552  1.00  0.00     0.164 HD
BRANCH  33  36
ATOM     36  CA  ASN A   6     -26.189 -10.994  -3.883  1.00  0.00     0.201 C 
BRANCH  36  37
ATOM     37  C   ASN A   6     -27.053 -11.522  -4.997  1.00  0.00     0.326 C 
ATOM     38  O   ASN A   6     -27.151 -10.892  -6.084  1.00  0.00    -0.250 OA
BRANCH  37  39
ATOM     39  OXT ASN A   6     -27.773 -12.698  -4.811  1.00  0.00    -0.480 OA
ATOM     40  H   UNL     1     -28.370 -13.063  -5.543  1.00  0.00     0.296 HD
ENDBRANCH  37  39
ENDBRANCH  36  37
BRANCH  36  41
ATOM     41  CB  ASN A   6     -26.930  -9.934  -3.062  1.00  0.00     0.136 C 
BRANCH  41  42
ATOM     42  CG  ASN A   6     -28.019 -10.549  -2.252  1.00  0.00     0.220 C 
ATOM     43  ND2 ASN A   6     -27.701 -11.242  -1.053  1.00  0.00    -0.370 N 
ATOM     44  OD1 ASN A   6     -29.213 -10.484  -2.642  1.00  0.00    -0.275 OA
ATOM     45  H   UNL     1     -26.713 -11.315  -0.724  1.00  0.00     0.159 HD
ATOM     46  H   UNL     1     -28.456 -11.688  -0.487  1.00  0.00     0.159 HD
ENDBRANCH  41  42
ENDBRANCH  36  41
ENDBRANCH  33  36
ENDBRANCH  31  32
BRANCH  31  47
ATOM     47  CB  ARG A   5     -22.649 -10.518  -6.916  1.00  0.00     0.037 C 
BRANCH  47  48
ATOM     48  CG  ARG A   5     -21.461  -9.719  -7.459  1.00  0.00     0.024 C 
BRANCH  48  49
ATOM     49  CD  ARG A   5     -21.602  -9.480  -8.963  1.00  0.00     0.116 C 
BRANCH  49  50
ATOM     50  NE  ARG A   5     -21.189  -8.117  -9.282  1.00  0.00    -0.357 N 
ATOM     51  CZ  ARG A   5     -20.075  -7.775 -10.105  1.00  0.00     0.185 C 
ATOM     52  NH2 ARG A   5     -19.200  -8.774 -10.616  1.00  0.00    -0.370 N 
ATOM     53  H   UNL     1     -21.774  -7.342  -8.893  1.00  0.00     0.163 HD
ATOM     54  H   UNL     1     -18.494  -8.517 -11.342  1.00  0.00     0.159 HD
ATOM     55  H   UNL     1     -19.097  -9.710 -10.171  1.00  0.00     0.159 HD
BRANCH  51  56
ATOM     56  NH1 ARG A   5     -19.847  -6.533 -10.392  1.00  0.00    -0.270 NA
ATOM     57  H   UNL     1     -20.457  -5.762 -10.039  1.00  0.00     0.191 HD
ENDBRANCH  51  56
ENDBRANCH  49  50
ENDBRANCH  48  49
ENDBRANCH  47  48
ENDBRANCH  31  47
ENDBRANCH  28  31
ENDBRANCH  26  27
BRANCH  26  58
ATOM     58  CB  ARG A   4     -19.664 -11.701  -1.529  1.00  0.00     0.037 C 
BRANCH  58  59
ATOM     59  CG  ARG A   4     -20.321 -12.966  -0.973  1.00  0.00     0.024 C 
BRANCH  59  60
ATOM     60  CD  ARG A   4     -19.608 -14.243  -1.440  1.00  0.00     0.116 C 
BRANCH  60  61
ATOM     61  NE  ARG A   4     -20.076 -15.393  -0.667  1.00  0.00    -0.357 N 
ATOM     62  CZ  ARG A   4     -21.362 -16.001  -0.868  1.00  0.00     0.185 C 
ATOM     63  NH2 ARG A   4     -21.756 -17.106  -0.051  1.00  0.00    -0.370 N 
ATOM     64  H   UNL     1     -19.425 -15.819   0.030  1.00  0.00     0.163 HD
ATOM     65  H   UNL     1     -22.684 -17.566  -0.182  1.00  0.00     0.159 HD
ATOM     66  H   UNL     1     -21.117 -17.469   0.691  1.00  0.00     0.159 HD
BRANCH  62  67
ATOM     67  NH1 ARG A   4     -22.159 -15.558  -1.789  1.00  0.00    -0.270 NA
ATOM     68  H   UNL     1     -23.098 -15.985  -1.955  1.00  0.00     0.191 HD
ENDBRANCH  62  67
ENDBRANCH  60  61
ENDBRANCH  59  60
ENDBRANCH  58  59
ENDBRANCH  26  58
ENDBRANCH   3  26
TORSDOF 29
