REMARK SMILES CC(C)C[C@H](NC(=O)[C@H](Cc1ccccc1)NC(=O)[C@@H](N)CO)C(=O)N[C@@H](CCCNC(=N)N)C(=O)N[C@@H](CCCNC(=N)N)C(=O)N[C@@H](CCC(N)=O)C(=O)O
REMARK SMILES IDX 24 1 25 2 26 3 5 5 6 6 7 7 8 8 9 10 17 11 18 12 19 13 20 15
REMARK SMILES IDX 21 16 22 19 23 20 10 22 11 23 12 24 16 25 13 26 15 27 14 28
REMARK SMILES IDX 4 29 2 30 1 31 3 32 27 33 35 34 37 35 36 36 38 38 46 39
REMARK SMILES IDX 48 40 47 41 49 43 55 44 56 45 57 46 50 48 51 49 52 50 53 51
REMARK SMILES IDX 54 52 39 55 40 56 41 57 42 58 43 59 45 60 44 64 28 66 29 67
REMARK SMILES IDX 30 68 31 69 32 70 34 71 33 75
REMARK H PARENT 26 4 6 9 17 14 21 17 21 18 23 21 37 37 48 42 57 47 53 53 53 54
REMARK H PARENT 42 61 45 62 45 63 44 65 31 72 34 73 34 74 33 76
ROOT
ATOM      1  C   LEU A   3     -18.385 -10.546  -4.865  1.00  0.00     0.243 C 
ATOM      2  O   LEU A   3     -18.751 -11.406  -5.711  1.00  0.00    -0.273 OA
ATOM      3  N   ARG A   4     -18.847 -10.584  -3.519  1.00  0.00    -0.343 N 
ATOM      4  H   UNL     1     -18.589  -9.798  -2.878  1.00  0.00     0.164 HD
ENDROOT
BRANCH   1   5
ATOM      5  CA  LEU A   3     -17.453  -9.454  -5.243  1.00  0.00     0.171 C 
BRANCH   5   6
ATOM      6  N   LEU A   3     -16.215 -10.021  -5.731  1.00  0.00    -0.343 N 
ATOM      7  C   PHE A   2     -15.252 -10.549  -4.827  1.00  0.00     0.243 C 
ATOM      8  O   PHE A   2     -15.473 -10.578  -3.584  1.00  0.00    -0.273 OA
ATOM      9  H   UNL     1     -16.038 -10.071  -6.761  1.00  0.00     0.164 HD
BRANCH   7  10
ATOM     10  CA  PHE A   2     -13.975 -11.063  -5.384  1.00  0.00     0.175 C 
BRANCH  10  11
ATOM     11  N   PHE A   2     -12.856 -10.485  -4.661  1.00  0.00    -0.343 N 
ATOM     12  C   SER A   1     -12.601  -9.082  -4.707  1.00  0.00     0.239 C 
ATOM     13  O   SER A   1     -13.365  -8.314  -5.355  1.00  0.00    -0.273 OA
ATOM     14  H   UNL     1     -12.220 -11.101  -4.105  1.00  0.00     0.164 HD
BRANCH  12  15
ATOM     15  CA  SER A   1     -11.437  -8.537  -3.934  1.00  0.00     0.167 C 
BRANCH  15  16
ATOM     16  N   SER A   1     -10.843  -7.380  -4.606  1.00  0.00    -0.318 NA
ATOM     17  H   UNL     1     -11.570  -6.653  -4.797  1.00  0.00     0.119 HD
ATOM     18  H   UNL     1     -10.468  -7.690  -5.533  1.00  0.00     0.119 HD
ENDBRANCH  15  16
BRANCH  15  19
ATOM     19  CB  SER A   1     -11.837  -8.200  -2.486  1.00  0.00     0.184 C 
BRANCH  19  20
ATOM     20  OG  SER A   1     -12.063  -6.826  -2.322  1.00  0.00    -0.394 OA
ATOM     21  H   UNL     1     -12.977  -6.649  -2.668  1.00  0.00     0.210 HD
ENDBRANCH  19  20
ENDBRANCH  15  19
ENDBRANCH  12  15
ENDBRANCH  10  11
BRANCH  10  22
ATOM     22  CB  PHE A   2     -13.963 -12.598  -5.326  1.00  0.00     0.070 C 
BRANCH  22  23
ATOM     23  CG  PHE A   2     -12.882 -13.201  -6.184  1.00  0.00    -0.045 A 
ATOM     24  CD1 PHE A   2     -12.722 -12.808  -7.527  1.00  0.00     0.004 A 
ATOM     25  CD2 PHE A   2     -12.090 -14.245  -5.683  1.00  0.00     0.004 A 
ATOM     26  CE1 PHE A   2     -11.747 -13.400  -8.324  1.00  0.00     0.000 A 
ATOM     27  CE2 PHE A   2     -11.132 -14.854  -6.496  1.00  0.00     0.000 A 
ATOM     28  CZ  PHE A   2     -10.954 -14.425  -7.812  1.00  0.00     0.000 A 
ENDBRANCH  22  23
ENDBRANCH  10  22
ENDBRANCH   7  10
ENDBRANCH   5   6
BRANCH   5  29
ATOM     29  CB  LEU A   3     -18.099  -8.525  -6.277  1.00  0.00     0.038 C 
BRANCH  29  30
ATOM     30  CG  LEU A   3     -17.543  -7.090  -6.223  1.00  0.00    -0.015 C 
ATOM     31  CD1 LEU A   3     -18.188  -6.262  -7.337  1.00  0.00     0.007 C 
ATOM     32  CD2 LEU A   3     -17.813  -6.422  -4.860  1.00  0.00     0.007 C 
ENDBRANCH  29  30
ENDBRANCH   5  29
ENDBRANCH   1   5
BRANCH   3  33
ATOM     33  CA  ARG A   4     -19.822 -11.543  -3.048  1.00  0.00     0.171 C 
BRANCH  33  34
ATOM     34  C   ARG A   4     -21.173 -11.058  -3.463  1.00  0.00     0.243 C 
ATOM     35  N   ARG A   5     -21.506 -11.139  -4.842  1.00  0.00    -0.343 N 
ATOM     36  O   ARG A   4     -21.977 -10.546  -2.637  1.00  0.00    -0.273 OA
ATOM     37  H   UNL     1     -21.064 -11.902  -5.403  1.00  0.00     0.164 HD
BRANCH  35  38
ATOM     38  CA  ARG A   5     -22.681 -10.496  -5.387  1.00  0.00     0.171 C 
BRANCH  38  39
ATOM     39  C   ARG A   5     -23.899 -11.195  -4.885  1.00  0.00     0.243 C 
ATOM     40  N   GLN A   6     -24.983 -10.405  -4.425  1.00  0.00    -0.341 N 
ATOM     41  O   ARG A   5     -23.966 -12.455  -4.869  1.00  0.00    -0.273 OA
ATOM     42  H   UNL     1     -24.933  -9.366  -4.536  1.00  0.00     0.164 HD
BRANCH  40  43
ATOM     43  CA  GLN A   6     -26.190 -11.003  -3.879  1.00  0.00     0.192 C 
BRANCH  43  44
ATOM     44  C   GLN A   6     -27.051 -11.525  -4.998  1.00  0.00     0.326 C 
ATOM     45  O   GLN A   6     -27.152 -10.886  -6.080  1.00  0.00    -0.250 OA
BRANCH  44  46
ATOM     46  OXT GLN A   6     -27.756 -12.712  -4.828  1.00  0.00    -0.480 OA
ATOM     47  H   UNL     1     -28.348 -13.075  -5.566  1.00  0.00     0.296 HD
ENDBRANCH  44  46
ENDBRANCH  43  44
BRANCH  43  48
ATOM     48  CB  GLN A   6     -26.929  -9.954  -3.038  1.00  0.00     0.047 C 
BRANCH  48  49
ATOM     49  CG  GLN A   6     -28.063 -10.573  -2.222  1.00  0.00     0.102 C 
BRANCH  49  50
ATOM     50  CD  GLN A   6     -28.728  -9.531  -1.374  1.00  0.00     0.217 C 
ATOM     51  NE2 GLN A   6     -29.740  -8.690  -1.926  1.00  0.00    -0.370 N 
ATOM     52  OE1 GLN A   6     -28.364  -9.370  -0.179  1.00  0.00    -0.275 OA
ATOM     53  H   UNL     1     -30.193  -7.955  -1.339  1.00  0.00     0.159 HD
ATOM     54  H   UNL     1     -30.036  -8.796  -2.922  1.00  0.00     0.159 HD
ENDBRANCH  49  50
ENDBRANCH  48  49
ENDBRANCH  43  48
ENDBRANCH  40  43
ENDBRANCH  38  39
BRANCH  38  55
ATOM     55  CB  ARG A   5     -22.650 -10.518  -6.916  1.00  0.00     0.037 C 
BRANCH  55  56
ATOM     56  CG  ARG A   5     -21.462  -9.719  -7.458  1.00  0.00     0.024 C 
BRANCH  56  57
ATOM     57  CD  ARG A   5     -21.602  -9.480  -8.963  1.00  0.00     0.116 C 
BRANCH  57  58
ATOM     58  NE  ARG A   5     -21.189  -8.117  -9.282  1.00  0.00    -0.357 N 
ATOM     59  CZ  ARG A   5     -20.075  -7.775 -10.105  1.00  0.00     0.185 C 
ATOM     60  NH2 ARG A   5     -19.200  -8.774 -10.616  1.00  0.00    -0.370 N 
ATOM     61  H   UNL     1     -21.774  -7.342  -8.893  1.00  0.00     0.163 HD
ATOM     62  H   UNL     1     -19.096  -9.710 -10.171  1.00  0.00     0.159 HD
ATOM     63  H   UNL     1     -18.494  -8.517 -11.342  1.00  0.00     0.159 HD
BRANCH  59  64
ATOM     64  NH1 ARG A   5     -19.847  -6.533 -10.392  1.00  0.00    -0.270 NA
ATOM     65  H   UNL     1     -20.457  -5.762 -10.039  1.00  0.00     0.191 HD
ENDBRANCH  59  64
ENDBRANCH  57  58
ENDBRANCH  56  57
ENDBRANCH  55  56
ENDBRANCH  38  55
ENDBRANCH  35  38
ENDBRANCH  33  34
BRANCH  33  66
ATOM     66  CB  ARG A   4     -19.673 -11.689  -1.523  1.00  0.00     0.037 C 
BRANCH  66  67
ATOM     67  CG  ARG A   4     -20.300 -12.968  -0.961  1.00  0.00     0.024 C 
BRANCH  67  68
ATOM     68  CD  ARG A   4     -19.615 -14.254  -1.455  1.00  0.00     0.116 C 
BRANCH  68  69
ATOM     69  NE  ARG A   4     -18.158 -14.188  -1.331  1.00  0.00    -0.357 N 
ATOM     70  CZ  ARG A   4     -17.472 -14.253  -0.072  1.00  0.00     0.185 C 
ATOM     71  NH2 ARG A   4     -16.049 -14.120  -0.036  1.00  0.00    -0.370 N 
ATOM     72  H   UNL     1     -17.592 -14.122  -2.207  1.00  0.00     0.163 HD
ATOM     73  H   UNL     1     -15.528 -14.167   0.867  1.00  0.00     0.159 HD
ATOM     74  H   UNL     1     -15.511 -13.966  -0.918  1.00  0.00     0.159 HD
BRANCH  70  75
ATOM     75  NH1 ARG A   4     -18.134 -14.438   1.026  1.00  0.00    -0.270 NA
ATOM     76  H   UNL     1     -17.657 -14.491   1.954  1.00  0.00     0.191 HD
ENDBRANCH  70  75
ENDBRANCH  68  69
ENDBRANCH  67  68
ENDBRANCH  66  67
ENDBRANCH  33  66
ENDBRANCH   3  33
TORSDOF 32
