REMARK SMILES CC(C)C[C@H](NC(=O)[C@H](Cc1ccccc1)NC(=O)[C@@H](N)CO)C(=O)N[C@@H](CO)C(=O)N[C@@H](CCCNC(=N)N)C(=O)NCC(=O)O
REMARK SMILES IDX 24 1 25 2 26 3 5 5 6 6 7 7 8 8 9 10 17 11 18 12 19 13 20 15
REMARK SMILES IDX 21 16 22 19 23 20 10 22 11 23 12 24 16 25 13 26 15 27 14 28
REMARK SMILES IDX 4 29 2 30 1 31 3 32 27 33 30 34 32 35 31 36 33 38 41 39
REMARK SMILES IDX 43 40 42 41 44 43 45 44 46 45 47 46 34 48 35 49 36 50 37 51
REMARK SMILES IDX 38 52 40 53 39 57 28 59 29 60
REMARK H PARENT 26 4 6 9 17 14 21 17 21 18 23 21 32 37 43 42 47 47 37 54 40 55
REMARK H PARENT 40 56 39 58 29 61
ROOT
ATOM      1  C   LEU A   3     -18.387 -10.555  -4.861  1.00  0.00     0.243 C 
ATOM      2  O   LEU A   3     -18.761 -11.404  -5.714  1.00  0.00    -0.273 OA
ATOM      3  N   SER A   4     -18.821 -10.622  -3.506  1.00  0.00    -0.340 N 
ATOM      4  H   UNL     1     -18.451  -9.916  -2.830  1.00  0.00     0.164 HD
ENDROOT
BRANCH   1   5
ATOM      5  CA  LEU A   3     -17.457  -9.457  -5.240  1.00  0.00     0.171 C 
BRANCH   5   6
ATOM      6  N   LEU A   3     -16.217 -10.020  -5.728  1.00  0.00    -0.343 N 
ATOM      7  C   PHE A   2     -15.252 -10.547  -4.826  1.00  0.00     0.243 C 
ATOM      8  O   PHE A   2     -15.472 -10.577  -3.583  1.00  0.00    -0.273 OA
ATOM      9  H   UNL     1     -16.041 -10.069  -6.758  1.00  0.00     0.164 HD
BRANCH   7  10
ATOM     10  CA  PHE A   2     -13.974 -11.061  -5.384  1.00  0.00     0.175 C 
BRANCH  10  11
ATOM     11  N   PHE A   2     -12.854 -10.483  -4.661  1.00  0.00    -0.343 N 
ATOM     12  C   SER A   1     -12.597  -9.081  -4.707  1.00  0.00     0.239 C 
ATOM     13  O   SER A   1     -13.359  -8.311  -5.356  1.00  0.00    -0.273 OA
ATOM     14  H   UNL     1     -12.219 -11.101  -4.104  1.00  0.00     0.164 HD
BRANCH  12  15
ATOM     15  CA  SER A   1     -11.437  -8.536  -3.931  1.00  0.00     0.167 C 
BRANCH  15  16
ATOM     16  N   SER A   1     -10.850  -7.390  -4.628  1.00  0.00    -0.318 NA
ATOM     17  H   UNL     1     -11.534  -6.600  -4.684  1.00  0.00     0.119 HD
ATOM     18  H   UNL     1     -10.013  -7.060  -4.095  1.00  0.00     0.119 HD
ENDBRANCH  15  16
BRANCH  15  19
ATOM     19  CB  SER A   1     -11.844  -8.201  -2.480  1.00  0.00     0.184 C 
BRANCH  19  20
ATOM     20  OG  SER A   1     -12.062  -6.825  -2.310  1.00  0.00    -0.394 OA
ATOM     21  H   UNL     1     -11.202  -6.425  -2.018  1.00  0.00     0.210 HD
ENDBRANCH  19  20
ENDBRANCH  15  19
ENDBRANCH  12  15
ENDBRANCH  10  11
BRANCH  10  22
ATOM     22  CB  PHE A   2     -13.963 -12.597  -5.326  1.00  0.00     0.070 C 
BRANCH  22  23
ATOM     23  CG  PHE A   2     -12.882 -13.200  -6.184  1.00  0.00    -0.045 A 
ATOM     24  CD1 PHE A   2     -12.722 -12.808  -7.527  1.00  0.00     0.004 A 
ATOM     25  CD2 PHE A   2     -12.090 -14.244  -5.683  1.00  0.00     0.004 A 
ATOM     26  CE1 PHE A   2     -11.747 -13.400  -8.324  1.00  0.00     0.000 A 
ATOM     27  CE2 PHE A   2     -11.133 -14.854  -6.496  1.00  0.00     0.000 A 
ATOM     28  CZ  PHE A   2     -10.954 -14.425  -7.812  1.00  0.00     0.000 A 
ENDBRANCH  22  23
ENDBRANCH  10  22
ENDBRANCH   7  10
ENDBRANCH   5   6
BRANCH   5  29
ATOM     29  CB  LEU A   3     -18.102  -8.527  -6.274  1.00  0.00     0.038 C 
BRANCH  29  30
ATOM     30  CG  LEU A   3     -17.544  -7.092  -6.222  1.00  0.00    -0.015 C 
ATOM     31  CD1 LEU A   3     -18.189  -6.264  -7.337  1.00  0.00     0.007 C 
ATOM     32  CD2 LEU A   3     -17.812  -6.423  -4.860  1.00  0.00     0.007 C 
ENDBRANCH  29  30
ENDBRANCH   5  29
ENDBRANCH   1   5
BRANCH   3  33
ATOM     33  CA  SER A   4     -19.832 -11.555  -3.041  1.00  0.00     0.197 C 
BRANCH  33  34
ATOM     34  C   SER A   4     -21.173 -11.048  -3.463  1.00  0.00     0.245 C 
ATOM     35  N   ARG A   5     -21.511 -11.131  -4.841  1.00  0.00    -0.342 N 
ATOM     36  O   SER A   4     -21.978 -10.540  -2.635  1.00  0.00    -0.273 OA
ATOM     37  H   UNL     1     -21.073 -11.897  -5.400  1.00  0.00     0.164 HD
BRANCH  35  38
ATOM     38  CA  ARG A   5     -22.690 -10.491  -5.383  1.00  0.00     0.171 C 
BRANCH  38  39
ATOM     39  C   ARG A   5     -23.910 -11.190  -4.876  1.00  0.00     0.243 C 
ATOM     40  N   GLY A   6     -24.993 -10.406  -4.389  1.00  0.00    -0.343 N 
ATOM     41  O   ARG A   5     -23.976 -12.451  -4.872  1.00  0.00    -0.273 OA
ATOM     42  H   UNL     1     -24.915  -9.364  -4.380  1.00  0.00     0.164 HD
BRANCH  40  43
ATOM     43  CA  GLY A   6     -26.217 -11.006  -3.883  1.00  0.00     0.238 C 
BRANCH  43  44
ATOM     44  C   GLY A   6     -27.045 -11.538  -5.010  1.00  0.00     0.322 C 
ATOM     45  O   GLY A   6     -27.151 -10.890  -6.085  1.00  0.00    -0.250 OA
BRANCH  44  46
ATOM     46  OXT GLY A   6     -27.732 -12.737  -4.853  1.00  0.00    -0.480 OA
ATOM     47  H   UNL     1     -28.308 -13.108  -5.600  1.00  0.00     0.296 HD
ENDBRANCH  44  46
ENDBRANCH  43  44
ENDBRANCH  40  43
ENDBRANCH  38  39
BRANCH  38  48
ATOM     48  CB  ARG A   5     -22.658 -10.514  -6.913  1.00  0.00     0.037 C 
BRANCH  48  49
ATOM     49  CG  ARG A   5     -21.466  -9.719  -7.456  1.00  0.00     0.024 C 
BRANCH  49  50
ATOM     50  CD  ARG A   5     -21.602  -9.480  -8.962  1.00  0.00     0.116 C 
BRANCH  50  51
ATOM     51  NE  ARG A   5     -21.190  -8.118  -9.281  1.00  0.00    -0.357 N 
ATOM     52  CZ  ARG A   5     -20.075  -7.775 -10.104  1.00  0.00     0.185 C 
ATOM     53  NH2 ARG A   5     -19.200  -8.775 -10.616  1.00  0.00    -0.370 N 
ATOM     54  H   UNL     1     -21.775  -7.343  -8.892  1.00  0.00     0.163 HD
ATOM     55  H   UNL     1     -19.097  -9.711 -10.171  1.00  0.00     0.159 HD
ATOM     56  H   UNL     1     -18.494  -8.518 -11.341  1.00  0.00     0.159 HD
BRANCH  52  57
ATOM     57  NH1 ARG A   5     -19.848  -6.533 -10.392  1.00  0.00    -0.270 NA
ATOM     58  H   UNL     1     -20.458  -5.763 -10.038  1.00  0.00     0.191 HD
ENDBRANCH  52  57
ENDBRANCH  50  51
ENDBRANCH  49  50
ENDBRANCH  48  49
ENDBRANCH  38  48
ENDBRANCH  35  38
ENDBRANCH  33  34
BRANCH  33  59
ATOM     59  CB  SER A   4     -19.716 -11.741  -1.524  1.00  0.00     0.191 C 
BRANCH  59  60
ATOM     60  OG  SER A   4     -19.876 -10.523  -0.848  1.00  0.00    -0.394 OA
ATOM     61  H   UNL     1     -19.788 -10.731   0.119  1.00  0.00     0.210 HD
ENDBRANCH  59  60
ENDBRANCH  33  59
ENDBRANCH   3  33
TORSDOF 26
