REMARK SMILES N=C(N)NCCC[C@H](NC(=O)[C@H](CCCCN)NC(=O)CNC(=O)[C@H](Cc1ccccc1)NC(=O)[C@@H](N)CO)C(=O)N[C@@H](CC(N)=O)C(=O)O
REMARK SMILES IDX 19 1 20 2 18 3 21 5 22 6 23 7 24 8 25 10 33 11 34 12 35 13
REMARK SMILES IDX 36 15 37 16 38 19 39 20 26 22 27 23 28 24 32 25 29 26 31 27
REMARK SMILES IDX 30 28 12 29 10 30 9 31 11 32 8 34 40 35 42 36 41 37 43 39
REMARK SMILES IDX 48 40 49 41 50 42 44 44 45 45 46 46 47 47 7 50 6 51 5 52
REMARK SMILES IDX 4 53 2 54 3 55 1 59 13 61 14 62 15 63 16 64 17 65
REMARK H PARENT 18 4 22 9 33 14 37 17 37 18 39 21 9 33 42 38 50 43 46 48 46 49
REMARK H PARENT 4 56 3 57 3 58 1 60 17 66 17 67
ROOT
ATOM      1  C   GLY A   3     -18.395 -10.525  -4.878  1.00  0.00     0.240 C 
ATOM      2  O   GLY A   3     -18.758 -11.399  -5.710  1.00  0.00    -0.273 OA
ATOM      3  N   LYS A   4     -18.832 -10.567  -3.524  1.00  0.00    -0.343 N 
ATOM      4  H   UNL     1     -18.529  -9.801  -2.880  1.00  0.00     0.164 HD
ENDROOT
BRANCH   1   5
ATOM      5  CA  GLY A   3     -17.480  -9.434  -5.300  1.00  0.00     0.216 C 
BRANCH   5   6
ATOM      6  N   GLY A   3     -16.222  -9.999  -5.735  1.00  0.00    -0.345 N 
ATOM      7  C   PHE A   2     -15.267 -10.538  -4.826  1.00  0.00     0.243 C 
ATOM      8  O   PHE A   2     -15.494 -10.568  -3.586  1.00  0.00    -0.273 OA
ATOM      9  H   UNL     1     -16.016  -9.992  -6.760  1.00  0.00     0.164 HD
BRANCH   7  10
ATOM     10  CA  PHE A   2     -13.984 -11.060  -5.381  1.00  0.00     0.175 C 
BRANCH  10  11
ATOM     11  N   PHE A   2     -12.863 -10.483  -4.659  1.00  0.00    -0.343 N 
ATOM     12  C   SER A   1     -12.602  -9.082  -4.708  1.00  0.00     0.239 C 
ATOM     13  O   SER A   1     -13.364  -8.313  -5.358  1.00  0.00    -0.273 OA
ATOM     14  H   UNL     1     -12.229 -11.100  -4.101  1.00  0.00     0.164 HD
BRANCH  12  15
ATOM     15  CA  SER A   1     -11.438  -8.538  -3.934  1.00  0.00     0.167 C 
BRANCH  15  16
ATOM     16  N   SER A   1     -10.845  -7.381  -4.608  1.00  0.00    -0.318 NA
ATOM     17  H   UNL     1     -10.478  -7.690  -5.538  1.00  0.00     0.119 HD
ATOM     18  H   UNL     1     -11.572  -6.651  -4.790  1.00  0.00     0.119 HD
ENDBRANCH  15  16
BRANCH  15  19
ATOM     19  CB  SER A   1     -11.843  -8.201  -2.485  1.00  0.00     0.184 C 
BRANCH  19  20
ATOM     20  OG  SER A   1     -12.055  -6.823  -2.318  1.00  0.00    -0.394 OA
ATOM     21  H   UNL     1     -11.173  -6.417  -2.110  1.00  0.00     0.210 HD
ENDBRANCH  19  20
ENDBRANCH  15  19
ENDBRANCH  12  15
ENDBRANCH  10  11
BRANCH  10  22
ATOM     22  CB  PHE A   2     -13.969 -12.596  -5.325  1.00  0.00     0.070 C 
BRANCH  22  23
ATOM     23  CG  PHE A   2     -12.885 -13.198  -6.182  1.00  0.00    -0.045 A 
ATOM     24  CD1 PHE A   2     -12.724 -12.806  -7.525  1.00  0.00     0.004 A 
ATOM     25  CD2 PHE A   2     -12.093 -14.243  -5.681  1.00  0.00     0.004 A 
ATOM     26  CE1 PHE A   2     -11.748 -13.398  -8.323  1.00  0.00     0.000 A 
ATOM     27  CE2 PHE A   2     -11.134 -14.853  -6.495  1.00  0.00     0.000 A 
ATOM     28  CZ  PHE A   2     -10.956 -14.423  -7.810  1.00  0.00     0.000 A 
ENDBRANCH  22  23
ENDBRANCH  10  22
ENDBRANCH   7  10
ENDBRANCH   5   6
ENDBRANCH   1   5
BRANCH   3  29
ATOM     29  CA  LYS A   4     -19.810 -11.529  -3.049  1.00  0.00     0.171 C 
BRANCH  29  30
ATOM     30  C   LYS A   4     -21.166 -11.053  -3.464  1.00  0.00     0.243 C 
ATOM     31  N   ARG A   5     -21.503 -11.141  -4.842  1.00  0.00    -0.343 N 
ATOM     32  O   LYS A   4     -21.973 -10.545  -2.637  1.00  0.00    -0.273 OA
ATOM     33  H   UNL     1     -21.068 -11.911  -5.398  1.00  0.00     0.164 HD
BRANCH  31  34
ATOM     34  CA  ARG A   5     -22.677 -10.497  -5.387  1.00  0.00     0.171 C 
BRANCH  34  35
ATOM     35  C   ARG A   5     -23.897 -11.195  -4.886  1.00  0.00     0.243 C 
ATOM     36  N   ASN A   6     -24.982 -10.402  -4.433  1.00  0.00    -0.341 N 
ATOM     37  O   ARG A   5     -23.965 -12.455  -4.868  1.00  0.00    -0.273 OA
ATOM     38  H   UNL     1     -24.930  -9.364  -4.552  1.00  0.00     0.164 HD
BRANCH  36  39
ATOM     39  CA  ASN A   6     -26.189 -10.994  -3.883  1.00  0.00     0.201 C 
BRANCH  39  40
ATOM     40  C   ASN A   6     -27.052 -11.522  -4.997  1.00  0.00     0.326 C 
ATOM     41  O   ASN A   6     -27.151 -10.892  -6.084  1.00  0.00    -0.250 OA
BRANCH  40  42
ATOM     42  OXT ASN A   6     -27.773 -12.698  -4.811  1.00  0.00    -0.480 OA
ATOM     43  H   UNL     1     -28.370 -13.063  -5.543  1.00  0.00     0.296 HD
ENDBRANCH  40  42
ENDBRANCH  39  40
BRANCH  39  44
ATOM     44  CB  ASN A   6     -26.929  -9.934  -3.062  1.00  0.00     0.136 C 
BRANCH  44  45
ATOM     45  CG  ASN A   6     -28.019 -10.549  -2.252  1.00  0.00     0.220 C 
ATOM     46  ND2 ASN A   6     -27.701 -11.241  -1.053  1.00  0.00    -0.370 N 
ATOM     47  OD1 ASN A   6     -29.213 -10.483  -2.643  1.00  0.00    -0.275 OA
ATOM     48  H   UNL     1     -26.713 -11.314  -0.724  1.00  0.00     0.159 HD
ATOM     49  H   UNL     1     -28.456 -11.688  -0.487  1.00  0.00     0.159 HD
ENDBRANCH  44  45
ENDBRANCH  39  44
ENDBRANCH  36  39
ENDBRANCH  34  35
BRANCH  34  50
ATOM     50  CB  ARG A   5     -22.646 -10.516  -6.915  1.00  0.00     0.037 C 
BRANCH  50  51
ATOM     51  CG  ARG A   5     -21.455  -9.718  -7.458  1.00  0.00     0.024 C 
BRANCH  51  52
ATOM     52  CD  ARG A   5     -21.601  -9.477  -8.962  1.00  0.00     0.116 C 
BRANCH  52  53
ATOM     53  NE  ARG A   5     -21.186  -8.116  -9.284  1.00  0.00    -0.357 N 
ATOM     54  CZ  ARG A   5     -20.070  -7.777 -10.104  1.00  0.00     0.185 C 
ATOM     55  NH2 ARG A   5     -19.200  -8.780 -10.620  1.00  0.00    -0.370 N 
ATOM     56  H   UNL     1     -21.767  -7.335  -8.901  1.00  0.00     0.163 HD
ATOM     57  H   UNL     1     -18.501  -8.535 -11.357  1.00  0.00     0.159 HD
ATOM     58  H   UNL     1     -19.101  -9.718 -10.177  1.00  0.00     0.159 HD
BRANCH  54  59
ATOM     59  NH1 ARG A   5     -19.850  -6.531 -10.380  1.00  0.00    -0.270 NA
ATOM     60  H   UNL     1     -19.046  -6.232 -10.975  1.00  0.00     0.191 HD
ENDBRANCH  54  59
ENDBRANCH  52  53
ENDBRANCH  51  52
ENDBRANCH  50  51
ENDBRANCH  34  50
ENDBRANCH  31  34
ENDBRANCH  29  30
BRANCH  29  61
ATOM     61  CB  LYS A   4     -19.666 -11.679  -1.524  1.00  0.00     0.035 C 
BRANCH  61  62
ATOM     62  CG  LYS A   4     -20.292 -12.961  -0.964  1.00  0.00     0.004 C 
BRANCH  62  63
ATOM     63  CD  LYS A   4     -19.620 -14.258  -1.452  1.00  0.00     0.015 C 
BRANCH  63  64
ATOM     64  CE  LYS A   4     -18.114 -14.324  -1.165  1.00  0.00     0.077 C 
BRANCH  64  65
ATOM     65  NZ  LYS A   4     -17.611 -15.670  -1.424  1.00  0.00    -0.330 NA
ATOM     66  H   UNL     1     -17.974 -16.305  -0.676  1.00  0.00     0.118 HD
ATOM     67  H   UNL     1     -16.572 -15.648  -1.314  1.00  0.00     0.118 HD
ENDBRANCH  64  65
ENDBRANCH  63  64
ENDBRANCH  62  63
ENDBRANCH  61  62
ENDBRANCH  29  61
ENDBRANCH   3  29
TORSDOF 29
