REMARK SMILES CC(C)C[C@H](NC(=O)[C@H](Cc1ccccc1)NC(=O)CN)C(=O)N[C@@H](CCCCN)C(=O)N[C@@H](CCCNC(=N)N)C(=O)N[C@@H](CC(N)=O)C(=O)O
REMARK SMILES IDX 25 1 24 2 22 3 23 4 5 6 6 7 7 8 8 9 9 11 17 12 18 13 19 14
REMARK SMILES IDX 20 16 21 17 10 20 11 21 12 22 16 23 13 24 15 25 14 26 4 27
REMARK SMILES IDX 2 28 1 29 3 30 31 31 33 32 32 33 34 35 42 36 44 37 43 38
REMARK SMILES IDX 45 40 50 41 51 42 52 43 46 45 47 46 48 47 49 48 35 51 36 52
REMARK SMILES IDX 37 53 38 54 39 55 41 56 40 60 26 62 27 63 28 64 29 65 30 66
REMARK H PARENT 24 5 6 10 17 15 21 18 21 19 33 34 44 39 52 44 48 49 48 50
REMARK H PARENT 38 57 41 58 41 59 40 61 30 67 30 68
ROOT
ATOM      1  CA  LYS A   4     -19.822 -11.542  -3.048  1.00  0.00     0.171 C 
ENDROOT
BRANCH   1   2
ATOM      2  N   LYS A   4     -18.847 -10.582  -3.520  1.00  0.00    -0.343 N 
ATOM      3  C   LEU A   3     -18.384 -10.546  -4.865  1.00  0.00     0.243 C 
ATOM      4  O   LEU A   3     -18.750 -11.406  -5.711  1.00  0.00    -0.273 OA
ATOM      5  H   UNL     1     -18.592  -9.794  -2.880  1.00  0.00     0.164 HD
BRANCH   3   6
ATOM      6  CA  LEU A   3     -17.451  -9.454  -5.244  1.00  0.00     0.171 C 
BRANCH   6   7
ATOM      7  N   LEU A   3     -16.213 -10.021  -5.731  1.00  0.00    -0.343 N 
ATOM      8  C   PHE A   2     -15.250 -10.548  -4.827  1.00  0.00     0.243 C 
ATOM      9  O   PHE A   2     -15.472 -10.578  -3.584  1.00  0.00    -0.273 OA
ATOM     10  H   UNL     1     -16.037 -10.072  -6.761  1.00  0.00     0.164 HD
BRANCH   8  11
ATOM     11  CA  PHE A   2     -13.971 -11.062  -5.383  1.00  0.00     0.175 C 
BRANCH  11  12
ATOM     12  N   PHE A   2     -12.850 -10.484  -4.658  1.00  0.00    -0.343 N 
ATOM     13  C   GLY A   1     -12.595  -9.082  -4.702  1.00  0.00     0.234 C 
ATOM     14  O   GLY A   1     -13.355  -8.313  -5.356  1.00  0.00    -0.274 OA
ATOM     15  H   UNL     1     -12.214 -11.101  -4.103  1.00  0.00     0.164 HD
BRANCH  13  16
ATOM     16  CA  GLY A   1     -11.453  -8.528  -3.914  1.00  0.00     0.178 C 
BRANCH  16  17
ATOM     17  N   GLY A   1     -10.882  -7.368  -4.585  1.00  0.00    -0.322 NA
ATOM     18  H   UNL     1     -11.542  -6.564  -4.472  1.00  0.00     0.119 HD
ATOM     19  H   UNL     1     -10.009  -7.103  -4.074  1.00  0.00     0.119 HD
ENDBRANCH  16  17
ENDBRANCH  13  16
ENDBRANCH  11  12
BRANCH  11  20
ATOM     20  CB  PHE A   2     -13.961 -12.597  -5.325  1.00  0.00     0.070 C 
BRANCH  20  21
ATOM     21  CG  PHE A   2     -12.881 -13.200  -6.184  1.00  0.00    -0.045 A 
ATOM     22  CD1 PHE A   2     -12.722 -12.808  -7.527  1.00  0.00     0.004 A 
ATOM     23  CD2 PHE A   2     -12.090 -14.245  -5.683  1.00  0.00     0.004 A 
ATOM     24  CE1 PHE A   2     -11.747 -13.400  -8.325  1.00  0.00     0.000 A 
ATOM     25  CE2 PHE A   2     -11.132 -14.854  -6.496  1.00  0.00     0.000 A 
ATOM     26  CZ  PHE A   2     -10.954 -14.425  -7.812  1.00  0.00     0.000 A 
ENDBRANCH  20  21
ENDBRANCH  11  20
ENDBRANCH   8  11
ENDBRANCH   6   7
BRANCH   6  27
ATOM     27  CB  LEU A   3     -18.097  -8.525  -6.277  1.00  0.00     0.038 C 
BRANCH  27  28
ATOM     28  CG  LEU A   3     -17.542  -7.090  -6.223  1.00  0.00    -0.015 C 
ATOM     29  CD1 LEU A   3     -18.188  -6.262  -7.337  1.00  0.00     0.007 C 
ATOM     30  CD2 LEU A   3     -17.814  -6.422  -4.860  1.00  0.00     0.007 C 
ENDBRANCH  27  28
ENDBRANCH   6  27
ENDBRANCH   3   6
ENDBRANCH   1   2
BRANCH   1  31
ATOM     31  C   LYS A   4     -21.173 -11.058  -3.464  1.00  0.00     0.243 C 
ATOM     32  N   ARG A   5     -21.505 -11.140  -4.843  1.00  0.00    -0.343 N 
ATOM     33  O   LYS A   4     -21.977 -10.546  -2.638  1.00  0.00    -0.273 OA
ATOM     34  H   UNL     1     -21.063 -11.903  -5.403  1.00  0.00     0.164 HD
BRANCH  32  35
ATOM     35  CA  ARG A   5     -22.679 -10.497  -5.389  1.00  0.00     0.171 C 
BRANCH  35  36
ATOM     36  C   ARG A   5     -23.898 -11.195  -4.886  1.00  0.00     0.243 C 
ATOM     37  N   ASN A   6     -24.982 -10.402  -4.433  1.00  0.00    -0.341 N 
ATOM     38  O   ARG A   5     -23.966 -12.455  -4.868  1.00  0.00    -0.273 OA
ATOM     39  H   UNL     1     -24.931  -9.364  -4.552  1.00  0.00     0.164 HD
BRANCH  37  40
ATOM     40  CA  ASN A   6     -26.189 -10.994  -3.883  1.00  0.00     0.201 C 
BRANCH  40  41
ATOM     41  C   ASN A   6     -27.053 -11.522  -4.997  1.00  0.00     0.326 C 
ATOM     42  O   ASN A   6     -27.151 -10.892  -6.084  1.00  0.00    -0.250 OA
BRANCH  41  43
ATOM     43  OXT ASN A   6     -27.774 -12.697  -4.811  1.00  0.00    -0.480 OA
ATOM     44  H   UNL     1     -28.371 -13.062  -5.543  1.00  0.00     0.296 HD
ENDBRANCH  41  43
ENDBRANCH  40  41
BRANCH  40  45
ATOM     45  CB  ASN A   6     -26.930  -9.934  -3.062  1.00  0.00     0.136 C 
BRANCH  45  46
ATOM     46  CG  ASN A   6     -28.019 -10.549  -2.252  1.00  0.00     0.220 C 
ATOM     47  ND2 ASN A   6     -27.701 -11.241  -1.053  1.00  0.00    -0.370 N 
ATOM     48  OD1 ASN A   6     -29.213 -10.484  -2.643  1.00  0.00    -0.275 OA
ATOM     49  H   UNL     1     -28.456 -11.688  -0.487  1.00  0.00     0.159 HD
ATOM     50  H   UNL     1     -26.713 -11.314  -0.724  1.00  0.00     0.159 HD
ENDBRANCH  45  46
ENDBRANCH  40  45
ENDBRANCH  37  40
ENDBRANCH  35  36
BRANCH  35  51
ATOM     51  CB  ARG A   5     -22.649 -10.518  -6.917  1.00  0.00     0.037 C 
BRANCH  51  52
ATOM     52  CG  ARG A   5     -21.462  -9.717  -7.459  1.00  0.00     0.024 C 
BRANCH  52  53
ATOM     53  CD  ARG A   5     -21.602  -9.477  -8.964  1.00  0.00     0.116 C 
BRANCH  53  54
ATOM     54  NE  ARG A   5     -21.186  -8.116  -9.284  1.00  0.00    -0.357 N 
ATOM     55  CZ  ARG A   5     -20.072  -7.777 -10.106  1.00  0.00     0.185 C 
ATOM     56  NH2 ARG A   5     -19.198  -8.780 -10.616  1.00  0.00    -0.370 N 
ATOM     57  H   UNL     1     -21.765  -7.335  -8.899  1.00  0.00     0.163 HD
ATOM     58  H   UNL     1     -19.093  -9.712 -10.162  1.00  0.00     0.159 HD
ATOM     59  H   UNL     1     -18.499  -8.537 -11.353  1.00  0.00     0.159 HD
BRANCH  55  60
ATOM     60  NH1 ARG A   5     -19.856  -6.531 -10.387  1.00  0.00    -0.270 NA
ATOM     61  H   UNL     1     -19.051  -6.233 -10.981  1.00  0.00     0.191 HD
ENDBRANCH  55  60
ENDBRANCH  53  54
ENDBRANCH  52  53
ENDBRANCH  51  52
ENDBRANCH  35  51
ENDBRANCH  32  35
ENDBRANCH   1  31
BRANCH   1  62
ATOM     62  CB  LYS A   4     -19.674 -11.686  -1.523  1.00  0.00     0.035 C 
BRANCH  62  63
ATOM     63  CG  LYS A   4     -20.294 -12.968  -0.961  1.00  0.00     0.004 C 
BRANCH  63  64
ATOM     64  CD  LYS A   4     -19.620 -14.263  -1.450  1.00  0.00     0.015 C 
BRANCH  64  65
ATOM     65  CE  LYS A   4     -18.108 -14.322  -1.168  1.00  0.00     0.077 C 
BRANCH  65  66
ATOM     66  NZ  LYS A   4     -17.576 -15.662  -1.408  1.00  0.00    -0.330 NA
ATOM     67  H   UNL     1     -17.797 -15.942  -2.391  1.00  0.00     0.118 HD
ATOM     68  H   UNL     1     -18.055 -16.337  -0.768  1.00  0.00     0.118 HD
ENDBRANCH  65  66
ENDBRANCH  64  65
ENDBRANCH  63  64
ENDBRANCH  62  63
ENDBRANCH   1  62
TORSDOF 29
