REMARK SMILES CC[C@H](C)[C@H](NC(=O)[C@H](CC(C)C)NC(=O)[C@H](C)NC(=O)[C@@H](N)CO)C(=O)N[C@@H](CCCNC(=N)N)C(=O)N[C@@H](CC(N)=O)C(=O)O
REMARK SMILES IDX 7 1 8 2 6 3 9 5 14 6 15 7 16 8 17 10 18 11 19 12 20 13 21 14
REMARK SMILES IDX 22 16 23 17 24 20 25 21 10 23 11 24 12 25 13 26 5 27 26 28
REMARK SMILES IDX 28 29 27 30 29 32 37 33 39 34 38 35 40 37 45 38 46 39 47 40
REMARK SMILES IDX 41 42 42 43 43 44 44 45 30 48 31 49 32 50 33 51 34 52 36 53
REMARK SMILES IDX 35 57 3 59 4 60 2 61 1 62
REMARK H PARENT 6 4 14 9 19 15 23 18 23 19 25 22 28 31 39 36 47 41 43 46 43 47
REMARK H PARENT 33 54 36 55 36 56 35 58
ROOT
ATOM      1  C   LEU A   3     -18.383 -10.547  -4.869  1.00  0.00     0.243 C 
ATOM      2  O   LEU A   3     -18.758 -11.404  -5.714  1.00  0.00    -0.273 OA
ATOM      3  N   ILE A   4     -18.831 -10.585  -3.519  1.00  0.00    -0.342 N 
ATOM      4  H   UNL     1     -18.440  -9.881  -2.855  1.00  0.00     0.164 HD
ENDROOT
BRANCH   1   5
ATOM      5  CA  LEU A   3     -17.445  -9.458  -5.253  1.00  0.00     0.171 C 
BRANCH   5   6
ATOM      6  N   LEU A   3     -16.206 -10.027  -5.744  1.00  0.00    -0.343 N 
ATOM      7  C   ALA A   2     -15.247 -10.565  -4.842  1.00  0.00     0.242 C 
ATOM      8  O   ALA A   2     -15.469 -10.584  -3.598  1.00  0.00    -0.273 OA
ATOM      9  H   UNL     1     -16.014 -10.050  -6.772  1.00  0.00     0.164 HD
BRANCH   7  10
ATOM     10  CA  ALA A   2     -13.962 -11.086  -5.392  1.00  0.00     0.168 C 
ATOM     11  CB  ALA A   2     -13.924 -12.607  -5.286  1.00  0.00     0.041 C 
BRANCH  10  12
ATOM     12  N   ALA A   2     -12.850 -10.486  -4.672  1.00  0.00    -0.343 N 
ATOM     13  C   SER A   1     -12.601  -9.082  -4.712  1.00  0.00     0.239 C 
ATOM     14  O   SER A   1     -13.366  -8.314  -5.359  1.00  0.00    -0.273 OA
ATOM     15  H   UNL     1     -12.218 -11.093  -4.100  1.00  0.00     0.164 HD
BRANCH  13  16
ATOM     16  CA  SER A   1     -11.440  -8.536  -3.935  1.00  0.00     0.167 C 
BRANCH  16  17
ATOM     17  N   SER A   1     -10.851  -7.388  -4.627  1.00  0.00    -0.318 NA
ATOM     18  H   UNL     1     -11.543  -6.608  -4.707  1.00  0.00     0.119 HD
ATOM     19  H   UNL     1     -10.035  -7.040  -4.072  1.00  0.00     0.119 HD
ENDBRANCH  16  17
BRANCH  16  20
ATOM     20  CB  SER A   1     -11.843  -8.202  -2.484  1.00  0.00     0.184 C 
BRANCH  20  21
ATOM     21  OG  SER A   1     -12.068  -6.828  -2.314  1.00  0.00    -0.394 OA
ATOM     22  H   UNL     1     -12.986  -6.651  -2.650  1.00  0.00     0.210 HD
ENDBRANCH  20  21
ENDBRANCH  16  20
ENDBRANCH  13  16
ENDBRANCH  10  12
ENDBRANCH   7  10
ENDBRANCH   5   6
BRANCH   5  23
ATOM     23  CB  LEU A   3     -18.094  -8.526  -6.283  1.00  0.00     0.038 C 
BRANCH  23  24
ATOM     24  CG  LEU A   3     -17.542  -7.090  -6.224  1.00  0.00    -0.015 C 
ATOM     25  CD1 LEU A   3     -18.188  -6.261  -7.337  1.00  0.00     0.007 C 
ATOM     26  CD2 LEU A   3     -17.815  -6.425  -4.861  1.00  0.00     0.007 C 
ENDBRANCH  23  24
ENDBRANCH   5  23
ENDBRANCH   1   5
BRANCH   3  27
ATOM     27  CA  ILE A   4     -19.825 -11.522  -3.030  1.00  0.00     0.174 C 
BRANCH  27  28
ATOM     28  C   ILE A   4     -21.176 -11.046  -3.462  1.00  0.00     0.243 C 
ATOM     29  N   ARG A   5     -21.501 -11.137  -4.843  1.00  0.00    -0.343 N 
ATOM     30  O   ILE A   4     -21.998 -10.547  -2.649  1.00  0.00    -0.273 OA
ATOM     31  H   UNL     1     -21.063 -11.907  -5.395  1.00  0.00     0.164 HD
BRANCH  29  32
ATOM     32  CA  ARG A   5     -22.678 -10.498  -5.391  1.00  0.00     0.171 C 
BRANCH  32  33
ATOM     33  C   ARG A   5     -23.897 -11.195  -4.888  1.00  0.00     0.243 C 
ATOM     34  N   ASN A   6     -24.981 -10.403  -4.433  1.00  0.00    -0.341 N 
ATOM     35  O   ARG A   5     -23.965 -12.455  -4.868  1.00  0.00    -0.273 OA
ATOM     36  H   UNL     1     -24.929  -9.364  -4.552  1.00  0.00     0.164 HD
BRANCH  34  37
ATOM     37  CA  ASN A   6     -26.189 -10.994  -3.883  1.00  0.00     0.201 C 
BRANCH  37  38
ATOM     38  C   ASN A   6     -27.052 -11.522  -4.997  1.00  0.00     0.326 C 
ATOM     39  O   ASN A   6     -27.151 -10.892  -6.084  1.00  0.00    -0.250 OA
BRANCH  38  40
ATOM     40  OXT ASN A   6     -27.773 -12.698  -4.811  1.00  0.00    -0.480 OA
ATOM     41  H   UNL     1     -28.370 -13.063  -5.543  1.00  0.00     0.296 HD
ENDBRANCH  38  40
ENDBRANCH  37  38
BRANCH  37  42
ATOM     42  CB  ASN A   6     -26.929  -9.934  -3.062  1.00  0.00     0.136 C 
BRANCH  42  43
ATOM     43  CG  ASN A   6     -28.019 -10.549  -2.252  1.00  0.00     0.220 C 
ATOM     44  ND2 ASN A   6     -27.701 -11.241  -1.053  1.00  0.00    -0.370 N 
ATOM     45  OD1 ASN A   6     -29.213 -10.483  -2.643  1.00  0.00    -0.275 OA
ATOM     46  H   UNL     1     -28.456 -11.688  -0.487  1.00  0.00     0.159 HD
ATOM     47  H   UNL     1     -26.712 -11.314  -0.724  1.00  0.00     0.159 HD
ENDBRANCH  42  43
ENDBRANCH  37  42
ENDBRANCH  34  37
ENDBRANCH  32  33
BRANCH  32  48
ATOM     48  CB  ARG A   5     -22.647 -10.521  -6.919  1.00  0.00     0.037 C 
BRANCH  48  49
ATOM     49  CG  ARG A   5     -21.461  -9.717  -7.461  1.00  0.00     0.024 C 
BRANCH  49  50
ATOM     50  CD  ARG A   5     -21.602  -9.477  -8.964  1.00  0.00     0.116 C 
BRANCH  50  51
ATOM     51  NE  ARG A   5     -21.186  -8.116  -9.284  1.00  0.00    -0.357 N 
ATOM     52  CZ  ARG A   5     -20.072  -7.777 -10.106  1.00  0.00     0.185 C 
ATOM     53  NH2 ARG A   5     -19.198  -8.780 -10.616  1.00  0.00    -0.370 N 
ATOM     54  H   UNL     1     -21.765  -7.334  -8.899  1.00  0.00     0.163 HD
ATOM     55  H   UNL     1     -18.499  -8.537 -11.353  1.00  0.00     0.159 HD
ATOM     56  H   UNL     1     -19.093  -9.711 -10.162  1.00  0.00     0.159 HD
BRANCH  52  57
ATOM     57  NH1 ARG A   5     -19.855  -6.531 -10.387  1.00  0.00    -0.270 NA
ATOM     58  H   UNL     1     -19.050  -6.233 -10.981  1.00  0.00     0.191 HD
ENDBRANCH  52  57
ENDBRANCH  50  51
ENDBRANCH  49  50
ENDBRANCH  48  49
ENDBRANCH  32  48
ENDBRANCH  29  32
ENDBRANCH  27  28
BRANCH  27  59
ATOM     59  CB  ILE A   4     -19.642 -11.706  -1.497  1.00  0.00     0.018 C 
ATOM     60  CG1 ILE A   4     -20.047 -10.490  -0.631  1.00  0.00     0.010 C 
BRANCH  59  61
ATOM     61  CG2 ILE A   4     -20.313 -12.982  -0.964  1.00  0.00     0.002 C 
ATOM     62  CD1 ILE A   4     -19.616 -14.251  -1.457  1.00  0.00     0.004 C 
ENDBRANCH  59  61
ENDBRANCH  27  59
ENDBRANCH   3  27
TORSDOF 26
