REMARK SMILES CC(C)C[C@H](NC(=O)[C@H](Cc1ccccc1)NC(=O)[C@@H](N)CO)C(=O)N[C@@H](Cc1c[nH]cn1)C(=O)N[C@@H](CC(N)=O)C(=O)N[C@@H](CC(N)=O)C(=O)O
REMARK SMILES IDX 24 1 25 2 26 3 5 5 6 6 7 7 8 8 9 10 17 11 18 12 19 13 20 15
REMARK SMILES IDX 21 16 22 19 23 20 10 22 11 23 12 24 16 25 13 26 15 27 14 28
REMARK SMILES IDX 4 29 2 30 1 31 3 32 27 33 34 34 36 35 35 36 37 38 42 39
REMARK SMILES IDX 44 40 43 41 45 43 50 44 51 45 52 46 46 48 47 49 48 50 49 51
REMARK SMILES IDX 38 54 39 55 40 56 41 57 28 60 29 61 33 62 30 63 32 64 31 65
REMARK H PARENT 26 4 6 9 17 14 21 17 21 18 23 21 36 37 44 42 52 47 48 52 48 53
REMARK H PARENT 40 58 40 59 31 66
ROOT
ATOM      1  C   LEU A   3     -18.387 -10.553  -4.862  1.00  0.00     0.243 C 
ATOM      2  O   LEU A   3     -18.754 -11.407  -5.713  1.00  0.00    -0.273 OA
ATOM      3  N   HIS A   4     -18.839 -10.607  -3.513  1.00  0.00    -0.342 N 
ATOM      4  H   UNL     1     -18.554  -9.841  -2.859  1.00  0.00     0.164 HD
ENDROOT
BRANCH   1   5
ATOM      5  CA  LEU A   3     -17.456  -9.456  -5.239  1.00  0.00     0.171 C 
BRANCH   5   6
ATOM      6  N   LEU A   3     -16.216 -10.019  -5.728  1.00  0.00    -0.343 N 
ATOM      7  C   PHE A   2     -15.252 -10.547  -4.826  1.00  0.00     0.243 C 
ATOM      8  O   PHE A   2     -15.472 -10.577  -3.583  1.00  0.00    -0.273 OA
ATOM      9  H   UNL     1     -16.041 -10.067  -6.758  1.00  0.00     0.164 HD
BRANCH   7  10
ATOM     10  CA  PHE A   2     -13.975 -11.061  -5.385  1.00  0.00     0.175 C 
BRANCH  10  11
ATOM     11  N   PHE A   2     -12.855 -10.484  -4.660  1.00  0.00    -0.343 N 
ATOM     12  C   SER A   1     -12.596  -9.082  -4.702  1.00  0.00     0.239 C 
ATOM     13  O   SER A   1     -13.355  -8.307  -5.349  1.00  0.00    -0.273 OA
ATOM     14  H   UNL     1     -12.220 -11.103  -4.105  1.00  0.00     0.164 HD
BRANCH  12  15
ATOM     15  CA  SER A   1     -11.430  -8.545  -3.930  1.00  0.00     0.167 C 
BRANCH  15  16
ATOM     16  N   SER A   1     -10.865  -7.379  -4.607  1.00  0.00    -0.318 NA
ATOM     17  H   UNL     1     -10.001  -7.089  -4.092  1.00  0.00     0.119 HD
ATOM     18  H   UNL     1     -10.544  -7.674  -5.559  1.00  0.00     0.119 HD
ENDBRANCH  15  16
BRANCH  15  19
ATOM     19  CB  SER A   1     -11.839  -8.205  -2.484  1.00  0.00     0.184 C 
BRANCH  19  20
ATOM     20  OG  SER A   1     -12.062  -6.828  -2.339  1.00  0.00    -0.394 OA
ATOM     21  H   UNL     1     -12.323  -6.688  -1.392  1.00  0.00     0.210 HD
ENDBRANCH  19  20
ENDBRANCH  15  19
ENDBRANCH  12  15
ENDBRANCH  10  11
BRANCH  10  22
ATOM     22  CB  PHE A   2     -13.964 -12.596  -5.327  1.00  0.00     0.070 C 
BRANCH  22  23
ATOM     23  CG  PHE A   2     -12.882 -13.200  -6.184  1.00  0.00    -0.045 A 
ATOM     24  CD1 PHE A   2     -12.722 -12.807  -7.527  1.00  0.00     0.004 A 
ATOM     25  CD2 PHE A   2     -12.091 -14.244  -5.683  1.00  0.00     0.004 A 
ATOM     26  CE1 PHE A   2     -11.747 -13.399  -8.324  1.00  0.00     0.000 A 
ATOM     27  CE2 PHE A   2     -11.133 -14.854  -6.496  1.00  0.00     0.000 A 
ATOM     28  CZ  PHE A   2     -10.954 -14.424  -7.812  1.00  0.00     0.000 A 
ENDBRANCH  22  23
ENDBRANCH  10  22
ENDBRANCH   7  10
ENDBRANCH   5   6
BRANCH   5  29
ATOM     29  CB  LEU A   3     -18.103  -8.526  -6.271  1.00  0.00     0.038 C 
BRANCH  29  30
ATOM     30  CG  LEU A   3     -17.542  -7.092  -6.223  1.00  0.00    -0.015 C 
ATOM     31  CD1 LEU A   3     -18.190  -6.257  -7.332  1.00  0.00     0.007 C 
ATOM     32  CD2 LEU A   3     -17.803  -6.422  -4.859  1.00  0.00     0.007 C 
ENDBRANCH  29  30
ENDBRANCH   5  29
ENDBRANCH   1   5
BRANCH   3  33
ATOM     33  CA  HIS A   4     -19.824 -11.561  -3.041  1.00  0.00     0.177 C 
BRANCH  33  34
ATOM     34  C   HIS A   4     -21.172 -11.062  -3.463  1.00  0.00     0.243 C 
ATOM     35  N   ASN A   5     -21.500 -11.130  -4.847  1.00  0.00    -0.342 N 
ATOM     36  O   HIS A   4     -21.974 -10.548  -2.636  1.00  0.00    -0.273 OA
ATOM     37  H   UNL     1     -21.057 -11.890  -5.409  1.00  0.00     0.164 HD
BRANCH  35  38
ATOM     38  CA  ASN A   5     -22.673 -10.485  -5.400  1.00  0.00     0.180 C 
BRANCH  38  39
ATOM     39  C   ASN A   5     -23.894 -11.186  -4.895  1.00  0.00     0.243 C 
ATOM     40  N   ASN A   6     -24.979 -10.397  -4.436  1.00  0.00    -0.340 N 
ATOM     41  O   ASN A   5     -23.960 -12.446  -4.874  1.00  0.00    -0.273 OA
ATOM     42  H   UNL     1     -24.927  -9.358  -4.548  1.00  0.00     0.164 HD
BRANCH  40  43
ATOM     43  CA  ASN A   6     -26.185 -10.992  -3.885  1.00  0.00     0.201 C 
BRANCH  43  44
ATOM     44  C   ASN A   6     -27.049 -11.522  -4.997  1.00  0.00     0.326 C 
ATOM     45  O   ASN A   6     -27.151 -10.892  -6.084  1.00  0.00    -0.250 OA
BRANCH  44  46
ATOM     46  OXT ASN A   6     -27.767 -12.699  -4.809  1.00  0.00    -0.480 OA
ATOM     47  H   UNL     1     -28.365 -13.065  -5.541  1.00  0.00     0.296 HD
ENDBRANCH  44  46
ENDBRANCH  43  44
BRANCH  43  48
ATOM     48  CB  ASN A   6     -26.928  -9.934  -3.063  1.00  0.00     0.136 C 
BRANCH  48  49
ATOM     49  CG  ASN A   6     -28.018 -10.550  -2.253  1.00  0.00     0.220 C 
ATOM     50  ND2 ASN A   6     -27.700 -11.242  -1.054  1.00  0.00    -0.370 N 
ATOM     51  OD1 ASN A   6     -29.212 -10.484  -2.643  1.00  0.00    -0.275 OA
ATOM     52  H   UNL     1     -28.455 -11.688  -0.488  1.00  0.00     0.159 HD
ATOM     53  H   UNL     1     -26.712 -11.315  -0.725  1.00  0.00     0.159 HD
ENDBRANCH  48  49
ENDBRANCH  43  48
ENDBRANCH  40  43
ENDBRANCH  38  39
BRANCH  38  54
ATOM     54  CB  ASN A   5     -22.637 -10.512  -6.933  1.00  0.00     0.134 C 
BRANCH  54  55
ATOM     55  CG  ASN A   5     -21.467  -9.741  -7.475  1.00  0.00     0.220 C 
ATOM     56  ND2 ASN A   5     -21.528  -8.319  -7.576  1.00  0.00    -0.370 N 
ATOM     57  OD1 ASN A   5     -20.438 -10.353  -7.866  1.00  0.00    -0.275 OA
ATOM     58  H   UNL     1     -20.754  -7.793  -8.036  1.00  0.00     0.159 HD
ATOM     59  H   UNL     1     -22.361  -7.795  -7.227  1.00  0.00     0.159 HD
ENDBRANCH  54  55
ENDBRANCH  38  54
ENDBRANCH  35  38
ENDBRANCH  33  34
BRANCH  33  60
ATOM     60  CB  HIS A   4     -19.673 -11.711  -1.517  1.00  0.00     0.093 C 
BRANCH  60  61
ATOM     61  CG  HIS A   4     -20.341 -12.943  -0.992  1.00  0.00     0.061 A 
ATOM     62  ND1 HIS A   4     -21.602 -12.972  -0.518  1.00  0.00    -0.242 NA
ATOM     63  CD2 HIS A   4     -19.815 -14.216  -1.003  1.00  0.00     0.107 A 
ATOM     64  CE1 HIS A   4     -21.810 -14.274  -0.230  1.00  0.00     0.196 A 
ATOM     65  NE2 HIS A   4     -20.745 -15.049  -0.514  1.00  0.00    -0.351 N 
ATOM     66  H   UNL     1     -20.665 -16.082  -0.391  1.00  0.00     0.167 HD
ENDBRANCH  60  61
ENDBRANCH  33  60
ENDBRANCH   3  33
TORSDOF 25
