REMARK SMILES CC(C)C[C@H](NC(=O)[C@H](Cc1ccccc1)NC(=O)[C@@H](N)CO)C(=O)N[C@@H](CCCCN)C(=O)N[C@@H](CCC(N)=O)C(=O)N[C@@H](CC(N)=O)C(=O)O
REMARK SMILES IDX 24 1 25 2 26 3 5 5 6 6 7 7 8 8 9 10 17 11 18 12 19 13 20 15
REMARK SMILES IDX 21 16 22 19 23 20 10 22 11 23 12 24 16 25 13 26 15 27 14 28
REMARK SMILES IDX 4 29 2 30 1 31 3 32 27 33 33 34 35 35 34 36 36 38 42 39
REMARK SMILES IDX 44 40 43 41 45 43 50 44 51 45 52 46 46 48 47 49 48 50 49 51
REMARK SMILES IDX 37 54 38 55 39 56 40 57 41 58 28 61 29 62 30 63 31 64 32 65
REMARK H PARENT 26 4 6 9 17 14 21 17 21 18 23 21 35 37 44 42 52 47 48 52 48 53
REMARK H PARENT 40 59 40 60 32 66 32 67
ROOT
ATOM      1  C   LEU A   3     -18.384 -10.546  -4.864  1.00  0.00     0.243 C 
ATOM      2  O   LEU A   3     -18.749 -11.406  -5.711  1.00  0.00    -0.273 OA
ATOM      3  N   LYS A   4     -18.848 -10.584  -3.520  1.00  0.00    -0.343 N 
ATOM      4  H   UNL     1     -18.591  -9.799  -2.877  1.00  0.00     0.164 HD
ENDROOT
BRANCH   1   5
ATOM      5  CA  LEU A   3     -17.452  -9.454  -5.242  1.00  0.00     0.171 C 
BRANCH   5   6
ATOM      6  N   LEU A   3     -16.214 -10.020  -5.731  1.00  0.00    -0.343 N 
ATOM      7  C   PHE A   2     -15.252 -10.549  -4.827  1.00  0.00     0.243 C 
ATOM      8  O   PHE A   2     -15.473 -10.578  -3.584  1.00  0.00    -0.273 OA
ATOM      9  H   UNL     1     -16.037 -10.067  -6.760  1.00  0.00     0.164 HD
BRANCH   7  10
ATOM     10  CA  PHE A   2     -13.974 -11.063  -5.385  1.00  0.00     0.175 C 
BRANCH  10  11
ATOM     11  N   PHE A   2     -12.855 -10.485  -4.661  1.00  0.00    -0.343 N 
ATOM     12  C   SER A   1     -12.601  -9.082  -4.707  1.00  0.00     0.239 C 
ATOM     13  O   SER A   1     -13.365  -8.313  -5.355  1.00  0.00    -0.273 OA
ATOM     14  H   UNL     1     -12.219 -11.101  -4.106  1.00  0.00     0.164 HD
BRANCH  12  15
ATOM     15  CA  SER A   1     -11.436  -8.537  -3.934  1.00  0.00     0.167 C 
BRANCH  15  16
ATOM     16  N   SER A   1     -10.843  -7.380  -4.606  1.00  0.00    -0.318 NA
ATOM     17  H   UNL     1     -11.570  -6.653  -4.797  1.00  0.00     0.119 HD
ATOM     18  H   UNL     1     -10.468  -7.690  -5.533  1.00  0.00     0.119 HD
ENDBRANCH  15  16
BRANCH  15  19
ATOM     19  CB  SER A   1     -11.837  -8.200  -2.486  1.00  0.00     0.184 C 
BRANCH  19  20
ATOM     20  OG  SER A   1     -12.063  -6.826  -2.322  1.00  0.00    -0.394 OA
ATOM     21  H   UNL     1     -12.977  -6.649  -2.668  1.00  0.00     0.210 HD
ENDBRANCH  19  20
ENDBRANCH  15  19
ENDBRANCH  12  15
ENDBRANCH  10  11
BRANCH  10  22
ATOM     22  CB  PHE A   2     -13.963 -12.598  -5.326  1.00  0.00     0.070 C 
BRANCH  22  23
ATOM     23  CG  PHE A   2     -12.882 -13.201  -6.184  1.00  0.00    -0.045 A 
ATOM     24  CD1 PHE A   2     -12.722 -12.808  -7.527  1.00  0.00     0.004 A 
ATOM     25  CD2 PHE A   2     -12.090 -14.245  -5.683  1.00  0.00     0.004 A 
ATOM     26  CE1 PHE A   2     -11.746 -13.400  -8.324  1.00  0.00     0.000 A 
ATOM     27  CE2 PHE A   2     -11.132 -14.854  -6.496  1.00  0.00     0.000 A 
ATOM     28  CZ  PHE A   2     -10.954 -14.425  -7.812  1.00  0.00     0.000 A 
ENDBRANCH  22  23
ENDBRANCH  10  22
ENDBRANCH   7  10
ENDBRANCH   5   6
BRANCH   5  29
ATOM     29  CB  LEU A   3     -18.099  -8.524  -6.274  1.00  0.00     0.038 C 
BRANCH  29  30
ATOM     30  CG  LEU A   3     -17.542  -7.090  -6.226  1.00  0.00    -0.015 C 
ATOM     31  CD1 LEU A   3     -18.195  -6.261  -7.335  1.00  0.00     0.007 C 
ATOM     32  CD2 LEU A   3     -17.804  -6.421  -4.862  1.00  0.00     0.007 C 
ENDBRANCH  29  30
ENDBRANCH   5  29
ENDBRANCH   1   5
BRANCH   3  33
ATOM     33  CA  LYS A   4     -19.824 -11.545  -3.052  1.00  0.00     0.171 C 
BRANCH  33  34
ATOM     34  C   LYS A   4     -21.174 -11.058  -3.467  1.00  0.00     0.243 C 
ATOM     35  N   GLN A   5     -21.508 -11.137  -4.848  1.00  0.00    -0.343 N 
ATOM     36  O   LYS A   4     -21.976 -10.546  -2.639  1.00  0.00    -0.273 OA
ATOM     37  H   UNL     1     -21.069 -11.901  -5.408  1.00  0.00     0.164 HD
BRANCH  35  38
ATOM     38  CA  GLN A   5     -22.682 -10.492  -5.396  1.00  0.00     0.171 C 
BRANCH  38  39
ATOM     39  C   GLN A   5     -23.900 -11.191  -4.895  1.00  0.00     0.243 C 
ATOM     40  N   ASN A   6     -24.983 -10.401  -4.435  1.00  0.00    -0.341 N 
ATOM     41  O   GLN A   5     -23.966 -12.452  -4.873  1.00  0.00    -0.273 OA
ATOM     42  H   UNL     1     -24.932  -9.362  -4.551  1.00  0.00     0.164 HD
BRANCH  40  43
ATOM     43  CA  ASN A   6     -26.189 -10.994  -3.884  1.00  0.00     0.201 C 
BRANCH  43  44
ATOM     44  C   ASN A   6     -27.053 -11.522  -4.997  1.00  0.00     0.326 C 
ATOM     45  O   ASN A   6     -27.152 -10.892  -6.084  1.00  0.00    -0.250 OA
BRANCH  44  46
ATOM     46  OXT ASN A   6     -27.774 -12.697  -4.810  1.00  0.00    -0.480 OA
ATOM     47  H   UNL     1     -28.371 -13.063  -5.542  1.00  0.00     0.296 HD
ENDBRANCH  44  46
ENDBRANCH  43  44
BRANCH  43  48
ATOM     48  CB  ASN A   6     -26.929  -9.934  -3.062  1.00  0.00     0.136 C 
BRANCH  48  49
ATOM     49  CG  ASN A   6     -28.019 -10.550  -2.252  1.00  0.00     0.220 C 
ATOM     50  ND2 ASN A   6     -27.701 -11.242  -1.053  1.00  0.00    -0.370 N 
ATOM     51  OD1 ASN A   6     -29.213 -10.484  -2.643  1.00  0.00    -0.275 OA
ATOM     52  H   UNL     1     -28.456 -11.688  -0.487  1.00  0.00     0.159 HD
ATOM     53  H   UNL     1     -26.712 -11.315  -0.724  1.00  0.00     0.159 HD
ENDBRANCH  48  49
ENDBRANCH  43  48
ENDBRANCH  40  43
ENDBRANCH  38  39
BRANCH  38  54
ATOM     54  CB  GLN A   5     -22.647 -10.497  -6.931  1.00  0.00     0.045 C 
BRANCH  54  55
ATOM     55  CG  GLN A   5     -21.420  -9.742  -7.450  1.00  0.00     0.102 C 
BRANCH  55  56
ATOM     56  CD  GLN A   5     -21.509  -9.445  -8.913  1.00  0.00     0.217 C 
ATOM     57  NE2 GLN A   5     -21.166  -8.141  -9.382  1.00  0.00    -0.370 N 
ATOM     58  OE1 GLN A   5     -21.826 -10.348  -9.733  1.00  0.00    -0.275 OA
ATOM     59  H   UNL     1     -20.876  -7.387  -8.721  1.00  0.00     0.159 HD
ATOM     60  H   UNL     1     -21.200  -7.926 -10.403  1.00  0.00     0.159 HD
ENDBRANCH  55  56
ENDBRANCH  54  55
ENDBRANCH  38  54
ENDBRANCH  35  38
ENDBRANCH  33  34
BRANCH  33  61
ATOM     61  CB  LYS A   4     -19.669 -11.702  -1.529  1.00  0.00     0.035 C 
BRANCH  61  62
ATOM     62  CG  LYS A   4     -20.322 -12.968  -0.971  1.00  0.00     0.004 C 
BRANCH  62  63
ATOM     63  CD  LYS A   4     -19.607 -14.244  -1.441  1.00  0.00     0.015 C 
BRANCH  63  64
ATOM     64  CE  LYS A   4     -20.084 -15.464  -0.639  1.00  0.00     0.077 C 
BRANCH  64  65
ATOM     65  NZ  LYS A   4     -19.430 -16.689  -1.094  1.00  0.00    -0.330 NA
ATOM     66  H   UNL     1     -18.395 -16.575  -1.000  1.00  0.00     0.118 HD
ATOM     67  H   UNL     1     -19.645 -16.830  -2.108  1.00  0.00     0.118 HD
ENDBRANCH  64  65
ENDBRANCH  63  64
ENDBRANCH  62  63
ENDBRANCH  61  62
ENDBRANCH  33  61
ENDBRANCH   3  33
TORSDOF 29
