REMARK SMILES CC(C)C[C@H](NC(=O)[C@H](Cc1ccccc1)NC(=O)[C@@H](N)CO)C(=O)N[C@@H](C)C(=O)N[C@@H](CCCNC(=N)N)C(=O)N[C@@H](CCCNC(=N)N)C(=O)O
REMARK SMILES IDX 29 1 30 2 31 3 27 5 28 6 26 7 24 8 25 9 5 11 6 12 7 13 8 14
REMARK SMILES IDX 9 16 17 17 18 18 19 19 20 21 21 22 22 25 23 26 10 28 11 29
REMARK SMILES IDX 12 30 16 31 13 32 15 33 14 34 4 35 2 36 1 37 3 38 32 39
REMARK SMILES IDX 40 40 42 41 41 42 43 44 51 45 52 46 53 47 44 49 45 50 46 51
REMARK SMILES IDX 47 52 48 53 50 54 49 58 33 60 34 61 35 62 36 63 37 64 39 65
REMARK SMILES IDX 38 69
REMARK H PARENT 31 4 26 10 6 15 17 20 21 23 21 24 23 27 42 43 53 48 47 55
REMARK H PARENT 50 56 50 57 49 59 36 66 39 67 39 68 38 70
ROOT
ATOM      1  C   ALA A   4     -21.169 -11.054  -3.465  1.00  0.00     0.242 C 
ATOM      2  O   ALA A   4     -21.970 -10.540  -2.636  1.00  0.00    -0.273 OA
ATOM      3  N   ARG A   5     -21.504 -11.136  -4.843  1.00  0.00    -0.343 N 
ATOM      4  H   UNL     1     -21.068 -11.903  -5.401  1.00  0.00     0.164 HD
ENDROOT
BRANCH   1   5
ATOM      5  CA  ALA A   4     -19.829 -11.563  -3.045  1.00  0.00     0.168 C 
ATOM      6  CB  ALA A   4     -19.720 -11.728  -1.531  1.00  0.00     0.041 C 
BRANCH   5   7
ATOM      7  N   ALA A   4     -18.824 -10.623  -3.505  1.00  0.00    -0.343 N 
ATOM      8  C   LEU A   3     -18.387 -10.555  -4.860  1.00  0.00     0.243 C 
ATOM      9  O   LEU A   3     -18.759 -11.405  -5.713  1.00  0.00    -0.273 OA
ATOM     10  H   UNL     1     -18.481  -9.902  -2.830  1.00  0.00     0.164 HD
BRANCH   8  11
ATOM     11  CA  LEU A   3     -17.457  -9.457  -5.238  1.00  0.00     0.171 C 
BRANCH  11  12
ATOM     12  N   LEU A   3     -16.217 -10.019  -5.727  1.00  0.00    -0.343 N 
ATOM     13  C   PHE A   2     -15.252 -10.547  -4.825  1.00  0.00     0.243 C 
ATOM     14  O   PHE A   2     -15.472 -10.577  -3.583  1.00  0.00    -0.273 OA
ATOM     15  H   UNL     1     -16.041 -10.067  -6.757  1.00  0.00     0.164 HD
BRANCH  13  16
ATOM     16  CA  PHE A   2     -13.974 -11.061  -5.384  1.00  0.00     0.175 C 
BRANCH  16  17
ATOM     17  N   PHE A   2     -12.854 -10.483  -4.661  1.00  0.00    -0.343 N 
ATOM     18  C   SER A   1     -12.598  -9.080  -4.706  1.00  0.00     0.239 C 
ATOM     19  O   SER A   1     -13.360  -8.310  -5.355  1.00  0.00    -0.273 OA
ATOM     20  H   UNL     1     -12.219 -11.100  -4.105  1.00  0.00     0.164 HD
BRANCH  18  21
ATOM     21  CA  SER A   1     -11.438  -8.536  -3.930  1.00  0.00     0.167 C 
BRANCH  21  22
ATOM     22  N   SER A   1     -10.850  -7.388  -4.623  1.00  0.00    -0.318 NA
ATOM     23  H   UNL     1     -11.542  -6.606  -4.695  1.00  0.00     0.119 HD
ATOM     24  H   UNL     1     -10.031  -7.043  -4.072  1.00  0.00     0.119 HD
ENDBRANCH  21  22
BRANCH  21  25
ATOM     25  CB  SER A   1     -11.842  -8.203  -2.479  1.00  0.00     0.184 C 
BRANCH  25  26
ATOM     26  OG  SER A   1     -12.063  -6.828  -2.319  1.00  0.00    -0.394 OA
ATOM     27  H   UNL     1     -12.320  -6.697  -1.369  1.00  0.00     0.210 HD
ENDBRANCH  25  26
ENDBRANCH  21  25
ENDBRANCH  18  21
ENDBRANCH  16  17
BRANCH  16  28
ATOM     28  CB  PHE A   2     -13.963 -12.596  -5.326  1.00  0.00     0.070 C 
BRANCH  28  29
ATOM     29  CG  PHE A   2     -12.882 -13.200  -6.184  1.00  0.00    -0.045 A 
ATOM     30  CD1 PHE A   2     -12.722 -12.808  -7.527  1.00  0.00     0.004 A 
ATOM     31  CD2 PHE A   2     -12.090 -14.244  -5.683  1.00  0.00     0.004 A 
ATOM     32  CE1 PHE A   2     -11.747 -13.399  -8.324  1.00  0.00     0.000 A 
ATOM     33  CE2 PHE A   2     -11.133 -14.854  -6.496  1.00  0.00     0.000 A 
ATOM     34  CZ  PHE A   2     -10.954 -14.424  -7.812  1.00  0.00     0.000 A 
ENDBRANCH  28  29
ENDBRANCH  16  28
ENDBRANCH  13  16
ENDBRANCH  11  12
BRANCH  11  35
ATOM     35  CB  LEU A   3     -18.103  -8.527  -6.272  1.00  0.00     0.038 C 
BRANCH  35  36
ATOM     36  CG  LEU A   3     -17.544  -7.093  -6.222  1.00  0.00    -0.015 C 
ATOM     37  CD1 LEU A   3     -18.188  -6.265  -7.337  1.00  0.00     0.007 C 
ATOM     38  CD2 LEU A   3     -17.812  -6.422  -4.860  1.00  0.00     0.007 C 
ENDBRANCH  35  36
ENDBRANCH  11  35
ENDBRANCH   8  11
ENDBRANCH   5   7
ENDBRANCH   1   5
BRANCH   3  39
ATOM     39  CA  ARG A   5     -22.680 -10.495  -5.387  1.00  0.00     0.171 C 
BRANCH  39  40
ATOM     40  C   ARG A   5     -23.898 -11.195  -4.885  1.00  0.00     0.243 C 
ATOM     41  N   ARG A   6     -24.983 -10.405  -4.426  1.00  0.00    -0.341 N 
ATOM     42  O   ARG A   5     -23.965 -12.455  -4.869  1.00  0.00    -0.273 OA
ATOM     43  H   UNL     1     -24.933  -9.366  -4.538  1.00  0.00     0.164 HD
BRANCH  41  44
ATOM     44  CA  ARG A   6     -26.190 -11.003  -3.879  1.00  0.00     0.192 C 
BRANCH  44  45
ATOM     45  C   ARG A   6     -27.050 -11.525  -4.999  1.00  0.00     0.326 C 
ATOM     46  O   ARG A   6     -27.153 -10.886  -6.080  1.00  0.00    -0.250 OA
BRANCH  45  47
ATOM     47  OXT ARG A   6     -27.754 -12.713  -4.829  1.00  0.00    -0.480 OA
ATOM     48  H   UNL     1     -28.345 -13.077  -5.567  1.00  0.00     0.296 HD
ENDBRANCH  45  47
ENDBRANCH  44  45
BRANCH  44  49
ATOM     49  CB  ARG A   6     -26.928  -9.953  -3.039  1.00  0.00     0.039 C 
BRANCH  49  50
ATOM     50  CG  ARG A   6     -28.064 -10.574  -2.220  1.00  0.00     0.024 C 
BRANCH  50  51
ATOM     51  CD  ARG A   6     -28.783  -9.527  -1.357  1.00  0.00     0.116 C 
BRANCH  51  52
ATOM     52  NE  ARG A   6     -27.890  -8.966  -0.342  1.00  0.00    -0.357 N 
ATOM     53  CZ  ARG A   6     -27.413  -9.674   0.817  1.00  0.00     0.185 C 
ATOM     54  NH2 ARG A   6     -26.402  -9.080   1.631  1.00  0.00    -0.370 N 
ATOM     55  H   UNL     1     -27.573  -7.979  -0.476  1.00  0.00     0.163 HD
ATOM     56  H   UNL     1     -26.001  -8.148   1.384  1.00  0.00     0.159 HD
ATOM     57  H   UNL     1     -26.048  -9.572   2.482  1.00  0.00     0.159 HD
BRANCH  53  58
ATOM     58  NH1 ARG A   6     -27.891 -10.832   1.154  1.00  0.00    -0.270 NA
ATOM     59  H   UNL     1     -28.640 -11.327   0.624  1.00  0.00     0.191 HD
ENDBRANCH  53  58
ENDBRANCH  51  52
ENDBRANCH  50  51
ENDBRANCH  49  50
ENDBRANCH  44  49
ENDBRANCH  41  44
ENDBRANCH  39  40
BRANCH  39  60
ATOM     60  CB  ARG A   5     -22.650 -10.517  -6.916  1.00  0.00     0.037 C 
BRANCH  60  61
ATOM     61  CG  ARG A   5     -21.462  -9.717  -7.459  1.00  0.00     0.024 C 
BRANCH  61  62
ATOM     62  CD  ARG A   5     -21.602  -9.477  -8.964  1.00  0.00     0.116 C 
BRANCH  62  63
ATOM     63  NE  ARG A   5     -21.186  -8.116  -9.284  1.00  0.00    -0.357 N 
ATOM     64  CZ  ARG A   5     -20.073  -7.777 -10.106  1.00  0.00     0.185 C 
ATOM     65  NH2 ARG A   5     -19.198  -8.780 -10.616  1.00  0.00    -0.370 N 
ATOM     66  H   UNL     1     -21.765  -7.334  -8.899  1.00  0.00     0.163 HD
ATOM     67  H   UNL     1     -18.499  -8.537 -11.353  1.00  0.00     0.159 HD
ATOM     68  H   UNL     1     -19.093  -9.712 -10.162  1.00  0.00     0.159 HD
BRANCH  64  69
ATOM     69  NH1 ARG A   5     -19.856  -6.532 -10.387  1.00  0.00    -0.270 NA
ATOM     70  H   UNL     1     -19.051  -6.233 -10.981  1.00  0.00     0.191 HD
ENDBRANCH  64  69
ENDBRANCH  62  63
ENDBRANCH  61  62
ENDBRANCH  60  61
ENDBRANCH  39  60
ENDBRANCH   3  39
TORSDOF 29
