REMARK SMILES CC(C)C[C@H](NC(=O)[C@H](Cc1ccccc1)NC(=O)[C@@H](N)CO)C(=O)N[C@@H](CCCNC(=N)N)C(=O)N[C@@H](CO)C(=O)N[C@@H](CC(N)=O)C(=O)O
REMARK SMILES IDX 24 1 25 2 26 3 5 5 6 6 7 7 8 8 9 10 17 11 18 12 19 13 20 15
REMARK SMILES IDX 21 16 22 19 23 20 10 22 11 23 12 24 16 25 13 26 15 27 14 28
REMARK SMILES IDX 4 29 2 30 1 31 3 32 27 33 35 34 37 35 36 36 38 38 41 39
REMARK SMILES IDX 43 40 42 41 44 43 49 44 50 45 51 46 45 48 46 49 47 50 48 51
REMARK SMILES IDX 39 54 40 55 28 57 29 58 30 59 31 60 32 61 34 62 33 66
REMARK H PARENT 26 4 6 9 17 14 21 17 21 18 23 21 37 37 43 42 51 47 47 52 47 53
REMARK H PARENT 40 56 31 63 34 64 34 65 33 67
ROOT
ATOM      1  C   LEU A   3     -18.386 -10.546  -4.867  1.00  0.00     0.243 C 
ATOM      2  O   LEU A   3     -18.756 -11.401  -5.717  1.00  0.00    -0.273 OA
ATOM      3  N   ARG A   4     -18.847 -10.586  -3.521  1.00  0.00    -0.343 N 
ATOM      4  H   UNL     1     -18.585  -9.803  -2.878  1.00  0.00     0.164 HD
ENDROOT
BRANCH   1   5
ATOM      5  CA  LEU A   3     -17.454  -9.454  -5.244  1.00  0.00     0.171 C 
BRANCH   5   6
ATOM      6  N   LEU A   3     -16.215 -10.020  -5.731  1.00  0.00    -0.343 N 
ATOM      7  C   PHE A   2     -15.253 -10.549  -4.827  1.00  0.00     0.243 C 
ATOM      8  O   PHE A   2     -15.474 -10.578  -3.584  1.00  0.00    -0.273 OA
ATOM      9  H   UNL     1     -16.037 -10.070  -6.760  1.00  0.00     0.164 HD
BRANCH   7  10
ATOM     10  CA  PHE A   2     -13.975 -11.063  -5.384  1.00  0.00     0.175 C 
BRANCH  10  11
ATOM     11  N   PHE A   2     -12.856 -10.485  -4.661  1.00  0.00    -0.343 N 
ATOM     12  C   SER A   1     -12.601  -9.082  -4.707  1.00  0.00     0.239 C 
ATOM     13  O   SER A   1     -13.365  -8.314  -5.356  1.00  0.00    -0.273 OA
ATOM     14  H   UNL     1     -12.219 -11.101  -4.105  1.00  0.00     0.164 HD
BRANCH  12  15
ATOM     15  CA  SER A   1     -11.438  -8.537  -3.932  1.00  0.00     0.167 C 
BRANCH  15  16
ATOM     16  N   SER A   1     -10.845  -7.378  -4.604  1.00  0.00    -0.318 NA
ATOM     17  H   UNL     1     -10.476  -7.685  -5.533  1.00  0.00     0.119 HD
ATOM     18  H   UNL     1     -11.574  -6.650  -4.787  1.00  0.00     0.119 HD
ENDBRANCH  15  16
BRANCH  15  19
ATOM     19  CB  SER A   1     -11.839  -8.202  -2.483  1.00  0.00     0.184 C 
BRANCH  19  20
ATOM     20  OG  SER A   1     -12.058  -6.826  -2.327  1.00  0.00    -0.394 OA
ATOM     21  H   UNL     1     -12.317  -6.693  -1.379  1.00  0.00     0.210 HD
ENDBRANCH  19  20
ENDBRANCH  15  19
ENDBRANCH  12  15
ENDBRANCH  10  11
BRANCH  10  22
ATOM     22  CB  PHE A   2     -13.963 -12.598  -5.326  1.00  0.00     0.070 C 
BRANCH  22  23
ATOM     23  CG  PHE A   2     -12.882 -13.201  -6.184  1.00  0.00    -0.045 A 
ATOM     24  CD1 PHE A   2     -12.722 -12.808  -7.526  1.00  0.00     0.004 A 
ATOM     25  CD2 PHE A   2     -12.090 -14.245  -5.682  1.00  0.00     0.004 A 
ATOM     26  CE1 PHE A   2     -11.747 -13.400  -8.324  1.00  0.00     0.000 A 
ATOM     27  CE2 PHE A   2     -11.132 -14.854  -6.496  1.00  0.00     0.000 A 
ATOM     28  CZ  PHE A   2     -10.954 -14.425  -7.812  1.00  0.00     0.000 A 
ENDBRANCH  22  23
ENDBRANCH  10  22
ENDBRANCH   7  10
ENDBRANCH   5   6
BRANCH   5  29
ATOM     29  CB  LEU A   3     -18.100  -8.527  -6.281  1.00  0.00     0.038 C 
BRANCH  29  30
ATOM     30  CG  LEU A   3     -17.546  -7.090  -6.226  1.00  0.00    -0.015 C 
ATOM     31  CD1 LEU A   3     -18.197  -6.260  -7.337  1.00  0.00     0.007 C 
ATOM     32  CD2 LEU A   3     -17.812  -6.424  -4.862  1.00  0.00     0.007 C 
ENDBRANCH  29  30
ENDBRANCH   5  29
ENDBRANCH   1   5
BRANCH   3  33
ATOM     33  CA  ARG A   4     -19.825 -11.543  -3.051  1.00  0.00     0.171 C 
BRANCH  33  34
ATOM     34  C   ARG A   4     -21.175 -11.055  -3.470  1.00  0.00     0.243 C 
ATOM     35  N   SER A   5     -21.504 -11.126  -4.853  1.00  0.00    -0.340 N 
ATOM     36  O   ARG A   4     -21.981 -10.547  -2.643  1.00  0.00    -0.273 OA
ATOM     37  H   UNL     1     -21.058 -11.882  -5.418  1.00  0.00     0.164 HD
BRANCH  35  38
ATOM     38  CA  SER A   5     -22.679 -10.484  -5.403  1.00  0.00     0.197 C 
BRANCH  38  39
ATOM     39  C   SER A   5     -23.897 -11.186  -4.898  1.00  0.00     0.245 C 
ATOM     40  N   ASN A   6     -24.981 -10.397  -4.436  1.00  0.00    -0.340 N 
ATOM     41  O   SER A   5     -23.961 -12.447  -4.875  1.00  0.00    -0.273 OA
ATOM     42  H   UNL     1     -24.928  -9.358  -4.547  1.00  0.00     0.164 HD
BRANCH  40  43
ATOM     43  CA  ASN A   6     -26.187 -10.992  -3.884  1.00  0.00     0.201 C 
BRANCH  43  44
ATOM     44  C   ASN A   6     -27.051 -11.522  -4.997  1.00  0.00     0.326 C 
ATOM     45  O   ASN A   6     -27.152 -10.892  -6.084  1.00  0.00    -0.250 OA
BRANCH  44  46
ATOM     46  OXT ASN A   6     -27.770 -12.698  -4.809  1.00  0.00    -0.480 OA
ATOM     47  H   UNL     1     -28.367 -13.064  -5.541  1.00  0.00     0.296 HD
ENDBRANCH  44  46
ENDBRANCH  43  44
BRANCH  43  48
ATOM     48  CB  ASN A   6     -26.929  -9.934  -3.062  1.00  0.00     0.136 C 
BRANCH  48  49
ATOM     49  CG  ASN A   6     -28.018 -10.550  -2.253  1.00  0.00     0.220 C 
ATOM     50  ND2 ASN A   6     -27.700 -11.242  -1.054  1.00  0.00    -0.370 N 
ATOM     51  OD1 ASN A   6     -29.212 -10.484  -2.643  1.00  0.00    -0.275 OA
ATOM     52  H   UNL     1     -28.456 -11.689  -0.488  1.00  0.00     0.159 HD
ATOM     53  H   UNL     1     -26.712 -11.315  -0.725  1.00  0.00     0.159 HD
ENDBRANCH  48  49
ENDBRANCH  43  48
ENDBRANCH  40  43
ENDBRANCH  38  39
BRANCH  38  54
ATOM     54  CB  SER A   5     -22.638 -10.505  -6.935  1.00  0.00     0.191 C 
BRANCH  54  55
ATOM     55  OG  SER A   5     -21.487  -9.857  -7.407  1.00  0.00    -0.394 OA
ATOM     56  H   UNL     1     -21.640  -8.883  -7.291  1.00  0.00     0.210 HD
ENDBRANCH  54  55
ENDBRANCH  38  54
ENDBRANCH  35  38
ENDBRANCH  33  34
BRANCH  33  57
ATOM     57  CB  ARG A   4     -19.677 -11.688  -1.526  1.00  0.00     0.037 C 
BRANCH  57  58
ATOM     58  CG  ARG A   4     -20.300 -12.968  -0.961  1.00  0.00     0.024 C 
BRANCH  58  59
ATOM     59  CD  ARG A   4     -19.615 -14.254  -1.457  1.00  0.00     0.116 C 
BRANCH  59  60
ATOM     60  NE  ARG A   4     -18.156 -14.183  -1.353  1.00  0.00    -0.357 N 
ATOM     61  CZ  ARG A   4     -17.418 -14.172  -0.117  1.00  0.00     0.185 C 
ATOM     62  NH2 ARG A   4     -16.026 -13.857  -0.139  1.00  0.00    -0.370 N 
ATOM     63  H   UNL     1     -17.616 -14.107  -2.244  1.00  0.00     0.163 HD
ATOM     64  H   UNL     1     -15.468 -13.852   0.744  1.00  0.00     0.159 HD
ATOM     65  H   UNL     1     -15.549 -13.620  -1.037  1.00  0.00     0.159 HD
BRANCH  61  66
ATOM     66  NH1 ARG A   4     -17.981 -14.458   1.016  1.00  0.00    -0.270 NA
ATOM     67  H   UNL     1     -18.986 -14.715   1.115  1.00  0.00     0.191 HD
ENDBRANCH  61  66
ENDBRANCH  59  60
ENDBRANCH  58  59
ENDBRANCH  57  58
ENDBRANCH  33  57
ENDBRANCH   3  33
TORSDOF 28
