REMARK SMILES CC(C)C[C@H](NC(=O)[C@H](C)NC(=O)[C@H](C)NC(=O)[C@@H](N)CO)C(=O)N[C@@H](CCCNC(=N)N)C(=O)N[C@@H](CC(N)=O)C(=O)O
REMARK SMILES IDX 7 1 8 2 6 3 9 5 10 6 11 7 12 8 13 9 14 11 15 12 16 13 17 14
REMARK SMILES IDX 18 15 19 17 20 18 21 21 22 22 5 24 23 25 25 26 24 27 26 29
REMARK SMILES IDX 34 30 36 31 35 32 37 34 42 35 43 36 44 37 38 39 39 40 40 41
REMARK SMILES IDX 41 42 27 45 28 46 29 47 30 48 31 49 33 50 32 54 4 56 2 57
REMARK SMILES IDX 1 58 3 59
REMARK H PARENT 6 4 11 10 16 16 20 19 20 20 22 23 25 28 36 33 44 38 40 43
REMARK H PARENT 40 44 30 51 33 52 33 53 32 55
ROOT
ATOM      1  C   ALA A   3     -18.390 -10.519  -4.877  1.00  0.00     0.242 C 
ATOM      2  O   ALA A   3     -18.750 -11.390  -5.715  1.00  0.00    -0.273 OA
ATOM      3  N   LEU A   4     -18.841 -10.565  -3.529  1.00  0.00    -0.343 N 
ATOM      4  H   UNL     1     -18.565  -9.787  -2.885  1.00  0.00     0.164 HD
ENDROOT
BRANCH   1   5
ATOM      5  CA  ALA A   3     -17.449  -9.430  -5.268  1.00  0.00     0.168 C 
ATOM      6  CB  ALA A   3     -18.065  -8.536  -6.336  1.00  0.00     0.041 C 
BRANCH   5   7
ATOM      7  N   ALA A   3     -16.208 -10.015  -5.741  1.00  0.00    -0.343 N 
ATOM      8  C   ALA A   2     -15.254 -10.559  -4.838  1.00  0.00     0.242 C 
ATOM      9  O   ALA A   2     -15.478 -10.578  -3.595  1.00  0.00    -0.273 OA
ATOM     10  H   UNL     1     -16.013 -10.044  -6.768  1.00  0.00     0.164 HD
BRANCH   8  11
ATOM     11  CA  ALA A   2     -13.967 -11.084  -5.388  1.00  0.00     0.168 C 
ATOM     12  CB  ALA A   2     -13.929 -12.605  -5.284  1.00  0.00     0.041 C 
BRANCH  11  13
ATOM     13  N   ALA A   2     -12.853 -10.486  -4.670  1.00  0.00    -0.343 N 
ATOM     14  C   SER A   1     -12.601  -9.082  -4.712  1.00  0.00     0.239 C 
ATOM     15  O   SER A   1     -13.365  -8.314  -5.360  1.00  0.00    -0.273 OA
ATOM     16  H   UNL     1     -12.222 -11.093  -4.097  1.00  0.00     0.164 HD
BRANCH  14  17
ATOM     17  CA  SER A   1     -11.440  -8.536  -3.935  1.00  0.00     0.167 C 
BRANCH  17  18
ATOM     18  N   SER A   1     -10.850  -7.389  -4.627  1.00  0.00    -0.318 NA
ATOM     19  H   UNL     1     -11.542  -6.608  -4.707  1.00  0.00     0.119 HD
ATOM     20  H   UNL     1     -10.034  -7.041  -4.073  1.00  0.00     0.119 HD
ENDBRANCH  17  18
BRANCH  17  21
ATOM     21  CB  SER A   1     -11.843  -8.202  -2.483  1.00  0.00     0.184 C 
BRANCH  21  22
ATOM     22  OG  SER A   1     -12.068  -6.828  -2.314  1.00  0.00    -0.394 OA
ATOM     23  H   UNL     1     -12.985  -6.652  -2.649  1.00  0.00     0.210 HD
ENDBRANCH  21  22
ENDBRANCH  17  21
ENDBRANCH  14  17
ENDBRANCH  11  13
ENDBRANCH   8  11
ENDBRANCH   5   7
ENDBRANCH   1   5
BRANCH   3  24
ATOM     24  CA  LEU A   4     -19.811 -11.535  -3.056  1.00  0.00     0.171 C 
BRANCH  24  25
ATOM     25  C   LEU A   4     -21.167 -11.058  -3.464  1.00  0.00     0.243 C 
ATOM     26  N   ARG A   5     -21.505 -11.141  -4.842  1.00  0.00    -0.343 N 
ATOM     27  O   LEU A   4     -21.970 -10.549  -2.634  1.00  0.00    -0.273 OA
ATOM     28  H   UNL     1     -21.063 -11.903  -5.404  1.00  0.00     0.164 HD
BRANCH  26  29
ATOM     29  CA  ARG A   5     -22.679 -10.496  -5.386  1.00  0.00     0.171 C 
BRANCH  29  30
ATOM     30  C   ARG A   5     -23.897 -11.194  -4.885  1.00  0.00     0.243 C 
ATOM     31  N   ASN A   6     -24.982 -10.402  -4.433  1.00  0.00    -0.341 N 
ATOM     32  O   ARG A   5     -23.966 -12.454  -4.867  1.00  0.00    -0.273 OA
ATOM     33  H   UNL     1     -24.931  -9.364  -4.552  1.00  0.00     0.164 HD
BRANCH  31  34
ATOM     34  CA  ASN A   6     -26.189 -10.994  -3.883  1.00  0.00     0.201 C 
BRANCH  34  35
ATOM     35  C   ASN A   6     -27.053 -11.522  -4.997  1.00  0.00     0.326 C 
ATOM     36  O   ASN A   6     -27.151 -10.892  -6.084  1.00  0.00    -0.250 OA
BRANCH  35  37
ATOM     37  OXT ASN A   6     -27.773 -12.698  -4.811  1.00  0.00    -0.480 OA
ATOM     38  H   UNL     1     -28.370 -13.063  -5.543  1.00  0.00     0.296 HD
ENDBRANCH  35  37
ENDBRANCH  34  35
BRANCH  34  39
ATOM     39  CB  ASN A   6     -26.930  -9.934  -3.062  1.00  0.00     0.136 C 
BRANCH  39  40
ATOM     40  CG  ASN A   6     -28.019 -10.549  -2.252  1.00  0.00     0.220 C 
ATOM     41  ND2 ASN A   6     -27.701 -11.241  -1.053  1.00  0.00    -0.370 N 
ATOM     42  OD1 ASN A   6     -29.213 -10.484  -2.642  1.00  0.00    -0.275 OA
ATOM     43  H   UNL     1     -28.456 -11.688  -0.487  1.00  0.00     0.159 HD
ATOM     44  H   UNL     1     -26.713 -11.314  -0.724  1.00  0.00     0.159 HD
ENDBRANCH  39  40
ENDBRANCH  34  39
ENDBRANCH  31  34
ENDBRANCH  29  30
BRANCH  29  45
ATOM     45  CB  ARG A   5     -22.650 -10.514  -6.914  1.00  0.00     0.037 C 
BRANCH  45  46
ATOM     46  CG  ARG A   5     -21.455  -9.724  -7.458  1.00  0.00     0.024 C 
BRANCH  46  47
ATOM     47  CD  ARG A   5     -21.601  -9.480  -8.962  1.00  0.00     0.116 C 
BRANCH  47  48
ATOM     48  NE  ARG A   5     -21.189  -8.117  -9.280  1.00  0.00    -0.357 N 
ATOM     49  CZ  ARG A   5     -20.072  -7.775 -10.101  1.00  0.00     0.185 C 
ATOM     50  NH2 ARG A   5     -19.200  -8.775 -10.617  1.00  0.00    -0.370 N 
ATOM     51  H   UNL     1     -21.775  -7.343  -8.891  1.00  0.00     0.163 HD
ATOM     52  H   UNL     1     -18.495  -8.517 -11.343  1.00  0.00     0.159 HD
ATOM     53  H   UNL     1     -19.100  -9.714 -10.177  1.00  0.00     0.159 HD
BRANCH  49  54
ATOM     54  NH1 ARG A   5     -19.842  -6.533 -10.385  1.00  0.00    -0.270 NA
ATOM     55  H   UNL     1     -20.452  -5.762 -10.031  1.00  0.00     0.191 HD
ENDBRANCH  49  54
ENDBRANCH  47  48
ENDBRANCH  46  47
ENDBRANCH  45  46
ENDBRANCH  29  45
ENDBRANCH  26  29
ENDBRANCH  24  25
BRANCH  24  56
ATOM     56  CB  LEU A   4     -19.648 -11.687  -1.536  1.00  0.00     0.038 C 
BRANCH  56  57
ATOM     57  CG  LEU A   4     -20.294 -12.953  -0.948  1.00  0.00    -0.015 C 
ATOM     58  CD1 LEU A   4     -19.611 -14.230  -1.464  1.00  0.00     0.007 C 
ATOM     59  CD2 LEU A   4     -20.194 -12.896   0.581  1.00  0.00     0.007 C 
ENDBRANCH  56  57
ENDBRANCH  24  56
ENDBRANCH   3  24
TORSDOF 24
