REMARK SMILES CC(C)C[C@H](NC(=O)[C@H](Cc1ccc(O)cc1)NC(=O)[C@@H](N)CO)C(=O)NCC(=O)N[C@@H](CCCNC(=N)N)C(=O)N[C@@H](CC(N)=O)C(=O)O
REMARK SMILES IDX 25 1 26 2 27 3 5 5 6 6 7 7 8 8 9 10 18 11 19 12 20 13 21 15
REMARK SMILES IDX 22 16 23 19 24 20 10 22 11 23 12 24 17 25 13 26 16 27 14 28
REMARK SMILES IDX 15 29 4 31 2 32 1 33 3 34 28 35 29 36 31 37 30 38 32 40
REMARK SMILES IDX 40 41 42 42 41 43 43 45 48 46 49 47 50 48 44 50 45 51 46 52
REMARK SMILES IDX 47 53 33 56 34 57 35 58 36 59 37 60 39 61 38 65
REMARK H PARENT 27 4 6 9 18 14 22 17 22 18 24 21 15 30 31 39 42 44 50 49 46 54
REMARK H PARENT 46 55 36 62 39 63 39 64 38 66
ROOT
ATOM      1  C   LEU A   3     -18.391 -10.560  -4.852  1.00  0.00     0.243 C 
ATOM      2  O   LEU A   3     -18.765 -11.403  -5.711  1.00  0.00    -0.273 OA
ATOM      3  N   GLY A   4     -18.819 -10.647  -3.493  1.00  0.00    -0.345 N 
ATOM      4  H   UNL     1     -18.407 -10.005  -2.779  1.00  0.00     0.164 HD
ENDROOT
BRANCH   1   5
ATOM      5  CA  LEU A   3     -17.462  -9.459  -5.229  1.00  0.00     0.171 C 
BRANCH   5   6
ATOM      6  N   LEU A   3     -16.220 -10.018  -5.721  1.00  0.00    -0.343 N 
ATOM      7  C   TYR A   2     -15.253 -10.547  -4.823  1.00  0.00     0.243 C 
ATOM      8  O   TYR A   2     -15.470 -10.578  -3.580  1.00  0.00    -0.273 OA
ATOM      9  H   UNL     1     -16.047 -10.067  -6.751  1.00  0.00     0.164 HD
BRANCH   7  10
ATOM     10  CA  TYR A   2     -13.976 -11.061  -5.384  1.00  0.00     0.175 C 
BRANCH  10  11
ATOM     11  N   TYR A   2     -12.855 -10.485  -4.661  1.00  0.00    -0.343 N 
ATOM     12  C   SER A   1     -12.596  -9.083  -4.703  1.00  0.00     0.239 C 
ATOM     13  O   SER A   1     -13.355  -8.308  -5.350  1.00  0.00    -0.273 OA
ATOM     14  H   UNL     1     -12.220 -11.104  -4.107  1.00  0.00     0.164 HD
BRANCH  12  15
ATOM     15  CA  SER A   1     -11.429  -8.545  -3.931  1.00  0.00     0.167 C 
BRANCH  15  16
ATOM     16  N   SER A   1     -10.863  -7.381  -4.611  1.00  0.00    -0.318 NA
ATOM     17  H   UNL     1      -9.982  -7.110  -4.115  1.00  0.00     0.119 HD
ATOM     18  H   UNL     1     -10.568  -7.671  -5.572  1.00  0.00     0.119 HD
ENDBRANCH  15  16
BRANCH  15  19
ATOM     19  CB  SER A   1     -11.841  -8.204  -2.485  1.00  0.00     0.184 C 
BRANCH  19  20
ATOM     20  OG  SER A   1     -12.062  -6.825  -2.331  1.00  0.00    -0.394 OA
ATOM     21  H   UNL     1     -11.200  -6.420  -2.047  1.00  0.00     0.210 HD
ENDBRANCH  19  20
ENDBRANCH  15  19
ENDBRANCH  12  15
ENDBRANCH  10  11
BRANCH  10  22
ATOM     22  CB  TYR A   2     -13.965 -12.596  -5.327  1.00  0.00     0.070 C 
BRANCH  22  23
ATOM     23  CG  TYR A   2     -12.883 -13.199  -6.184  1.00  0.00    -0.045 A 
ATOM     24  CD1 TYR A   2     -12.722 -12.807  -7.526  1.00  0.00     0.007 A 
ATOM     25  CD2 TYR A   2     -12.092 -14.243  -5.682  1.00  0.00     0.007 A 
ATOM     26  CE1 TYR A   2     -11.747 -13.399  -8.324  1.00  0.00     0.046 A 
ATOM     27  CE2 TYR A   2     -11.133 -14.853  -6.494  1.00  0.00     0.046 A 
ATOM     28  CZ  TYR A   2     -10.953 -14.425  -7.814  1.00  0.00     0.115 A 
BRANCH  28  29
ATOM     29  OH  TYR A   2      -9.991 -15.020  -8.629  1.00  0.00    -0.508 OA
ATOM     30  H   UNL     1      -9.400 -15.770  -8.289  1.00  0.00     0.293 HD
ENDBRANCH  28  29
ENDBRANCH  22  23
ENDBRANCH  10  22
ENDBRANCH   7  10
ENDBRANCH   5   6
BRANCH   5  31
ATOM     31  CB  LEU A   3     -18.107  -8.529  -6.265  1.00  0.00     0.038 C 
BRANCH  31  32
ATOM     32  CG  LEU A   3     -17.545  -7.095  -6.219  1.00  0.00    -0.015 C 
ATOM     33  CD1 LEU A   3     -18.188  -6.268  -7.336  1.00  0.00     0.007 C 
ATOM     34  CD2 LEU A   3     -17.810  -6.422  -4.859  1.00  0.00     0.007 C 
ENDBRANCH  31  32
ENDBRANCH   5  31
ENDBRANCH   1   5
BRANCH   3  35
ATOM     35  CA  GLY A   4     -19.841 -11.571  -3.040  1.00  0.00     0.216 C 
BRANCH  35  36
ATOM     36  C   GLY A   4     -21.165 -11.056  -3.467  1.00  0.00     0.240 C 
ATOM     37  N   ARG A   5     -21.503 -11.138  -4.845  1.00  0.00    -0.343 N 
ATOM     38  O   GLY A   4     -21.960 -10.547  -2.632  1.00  0.00    -0.273 OA
ATOM     39  H   UNL     1     -21.071 -11.909  -5.401  1.00  0.00     0.164 HD
BRANCH  37  40
ATOM     40  CA  ARG A   5     -22.679 -10.496  -5.388  1.00  0.00     0.171 C 
BRANCH  40  41
ATOM     41  C   ARG A   5     -23.897 -11.194  -4.885  1.00  0.00     0.243 C 
ATOM     42  N   ASN A   6     -24.982 -10.402  -4.433  1.00  0.00    -0.341 N 
ATOM     43  O   ARG A   5     -23.965 -12.454  -4.868  1.00  0.00    -0.273 OA
ATOM     44  H   UNL     1     -24.931  -9.364  -4.553  1.00  0.00     0.164 HD
BRANCH  42  45
ATOM     45  CA  ASN A   6     -26.189 -10.994  -3.883  1.00  0.00     0.201 C 
BRANCH  45  46
ATOM     46  C   ASN A   6     -27.052 -11.522  -4.997  1.00  0.00     0.326 C 
ATOM     47  O   ASN A   6     -27.151 -10.892  -6.084  1.00  0.00    -0.250 OA
BRANCH  46  48
ATOM     48  OXT ASN A   6     -27.773 -12.698  -4.811  1.00  0.00    -0.480 OA
ATOM     49  H   UNL     1     -28.370 -13.063  -5.543  1.00  0.00     0.296 HD
ENDBRANCH  46  48
ENDBRANCH  45  46
BRANCH  45  50
ATOM     50  CB  ASN A   6     -26.930  -9.934  -3.062  1.00  0.00     0.136 C 
BRANCH  50  51
ATOM     51  CG  ASN A   6     -28.019 -10.549  -2.252  1.00  0.00     0.220 C 
ATOM     52  ND2 ASN A   6     -27.701 -11.241  -1.053  1.00  0.00    -0.370 N 
ATOM     53  OD1 ASN A   6     -29.213 -10.484  -2.643  1.00  0.00    -0.275 OA
ATOM     54  H   UNL     1     -28.456 -11.688  -0.487  1.00  0.00     0.159 HD
ATOM     55  H   UNL     1     -26.713 -11.314  -0.724  1.00  0.00     0.159 HD
ENDBRANCH  50  51
ENDBRANCH  45  50
ENDBRANCH  42  45
ENDBRANCH  40  41
BRANCH  40  56
ATOM     56  CB  ARG A   5     -22.650 -10.517  -6.916  1.00  0.00     0.037 C 
BRANCH  56  57
ATOM     57  CG  ARG A   5     -21.461  -9.718  -7.459  1.00  0.00     0.024 C 
BRANCH  57  58
ATOM     58  CD  ARG A   5     -21.602  -9.480  -8.964  1.00  0.00     0.116 C 
BRANCH  58  59
ATOM     59  NE  ARG A   5     -21.190  -8.117  -9.282  1.00  0.00    -0.357 N 
ATOM     60  CZ  ARG A   5     -20.075  -7.775 -10.105  1.00  0.00     0.185 C 
ATOM     61  NH2 ARG A   5     -19.200  -8.774 -10.616  1.00  0.00    -0.370 N 
ATOM     62  H   UNL     1     -21.775  -7.342  -8.894  1.00  0.00     0.163 HD
ATOM     63  H   UNL     1     -18.493  -8.517 -11.341  1.00  0.00     0.159 HD
ATOM     64  H   UNL     1     -19.097  -9.710 -10.171  1.00  0.00     0.159 HD
BRANCH  60  65
ATOM     65  NH1 ARG A   5     -19.847  -6.533 -10.392  1.00  0.00    -0.270 NA
ATOM     66  H   UNL     1     -20.457  -5.762 -10.039  1.00  0.00     0.191 HD
ENDBRANCH  60  65
ENDBRANCH  58  59
ENDBRANCH  57  58
ENDBRANCH  56  57
ENDBRANCH  40  56
ENDBRANCH  37  40
ENDBRANCH  35  36
ENDBRANCH   3  35
TORSDOF 27
