REMARK SMILES CC[C@H](C)[C@H](NC(=O)[C@@H](N)CO)C(=O)N[C@@H](CC(C)C)C(=O)N[C@@H](CC(N)=O)C(=O)N[C@@H](CCCNC(=N)N)C(=O)N[C@@H](CC(N)=O)C(=O)O
REMARK SMILES IDX 21 1 22 2 23 3 16 5 15 6 13 7 14 8 5 10 6 11 7 12 8 13 9 15
REMARK SMILES IDX 10 16 11 19 12 20 3 22 4 23 2 24 1 25 17 26 18 27 19 28
REMARK SMILES IDX 20 29 24 30 29 31 31 32 30 33 32 35 40 36 42 37 41 38 43 40
REMARK SMILES IDX 48 41 49 42 50 43 44 45 45 46 46 47 47 48 33 51 34 52 35 53
REMARK SMILES IDX 36 54 37 55 39 56 38 60 25 62 26 63 27 64 28 65
REMARK H PARENT 23 4 15 9 6 14 10 17 10 18 12 21 31 34 42 39 50 44 46 49 46 50
REMARK H PARENT 36 57 39 58 39 59 38 61 27 66 27 67
ROOT
ATOM      1  C   LEU A   3     -18.384 -10.555  -4.865  1.00  0.00     0.243 C 
ATOM      2  O   LEU A   3     -18.754 -11.410  -5.714  1.00  0.00    -0.273 OA
ATOM      3  N   ASN A   4     -18.837 -10.605  -3.515  1.00  0.00    -0.342 N 
ATOM      4  H   UNL     1     -18.551  -9.838  -2.864  1.00  0.00     0.164 HD
ENDROOT
BRANCH   1   5
ATOM      5  CA  LEU A   3     -17.451  -9.460  -5.247  1.00  0.00     0.171 C 
BRANCH   5   6
ATOM      6  N   LEU A   3     -16.209 -10.026  -5.736  1.00  0.00    -0.343 N 
ATOM      7  C   ILE A   2     -15.251 -10.554  -4.828  1.00  0.00     0.243 C 
ATOM      8  O   ILE A   2     -15.474 -10.545  -3.586  1.00  0.00    -0.273 OA
ATOM      9  H   UNL     1     -16.028 -10.075  -6.765  1.00  0.00     0.164 HD
BRANCH   7  10
ATOM     10  CA  ILE A   2     -13.967 -11.097  -5.369  1.00  0.00     0.174 C 
BRANCH  10  11
ATOM     11  N   ILE A   2     -12.843 -10.489  -4.671  1.00  0.00    -0.343 N 
ATOM     12  C   SER A   1     -12.603  -9.084  -4.713  1.00  0.00     0.239 C 
ATOM     13  O   SER A   1     -13.373  -8.320  -5.359  1.00  0.00    -0.273 OA
ATOM     14  H   UNL     1     -12.167 -11.087  -4.145  1.00  0.00     0.164 HD
BRANCH  12  15
ATOM     15  CA  SER A   1     -11.441  -8.533  -3.936  1.00  0.00     0.167 C 
BRANCH  15  16
ATOM     16  N   SER A   1     -10.851  -7.374  -4.607  1.00  0.00    -0.318 NA
ATOM     17  H   UNL     1     -11.582  -6.648  -4.791  1.00  0.00     0.119 HD
ATOM     18  H   UNL     1     -10.480  -7.679  -5.536  1.00  0.00     0.119 HD
ENDBRANCH  15  16
BRANCH  15  19
ATOM     19  CB  SER A   1     -11.842  -8.202  -2.487  1.00  0.00     0.184 C 
BRANCH  19  20
ATOM     20  OG  SER A   1     -12.057  -6.826  -2.327  1.00  0.00    -0.394 OA
ATOM     21  H   UNL     1     -12.317  -6.694  -1.378  1.00  0.00     0.210 HD
ENDBRANCH  19  20
ENDBRANCH  15  19
ENDBRANCH  12  15
ENDBRANCH  10  11
BRANCH  10  22
ATOM     22  CB  ILE A   2     -13.948 -12.647  -5.294  1.00  0.00     0.018 C 
ATOM     23  CG1 ILE A   2     -12.857 -13.211  -6.211  1.00  0.00     0.010 C 
BRANCH  22  24
ATOM     24  CG2 ILE A   2     -13.791 -13.218  -3.855  1.00  0.00     0.002 C 
ATOM     25  CD1 ILE A   2     -14.391 -14.619  -3.718  1.00  0.00     0.004 C 
ENDBRANCH  22  24
ENDBRANCH  10  22
ENDBRANCH   7  10
ENDBRANCH   5   6
BRANCH   5  26
ATOM     26  CB  LEU A   3     -18.097  -8.528  -6.278  1.00  0.00     0.038 C 
BRANCH  26  27
ATOM     27  CG  LEU A   3     -17.542  -7.092  -6.223  1.00  0.00    -0.015 C 
ATOM     28  CD1 LEU A   3     -18.188  -6.263  -7.337  1.00  0.00     0.007 C 
ATOM     29  CD2 LEU A   3     -17.813  -6.425  -4.860  1.00  0.00     0.007 C 
ENDBRANCH  26  27
ENDBRANCH   5  26
ENDBRANCH   1   5
BRANCH   3  30
ATOM     30  CA  ASN A   4     -19.820 -11.561  -3.040  1.00  0.00     0.180 C 
BRANCH  30  31
ATOM     31  C   ASN A   4     -21.169 -11.065  -3.458  1.00  0.00     0.243 C 
ATOM     32  N   ARG A   5     -21.502 -11.143  -4.839  1.00  0.00    -0.343 N 
ATOM     33  O   ASN A   4     -21.970 -10.548  -2.632  1.00  0.00    -0.273 OA
ATOM     34  H   UNL     1     -21.063 -11.907  -5.399  1.00  0.00     0.164 HD
BRANCH  32  35
ATOM     35  CA  ARG A   5     -22.677 -10.498  -5.385  1.00  0.00     0.171 C 
BRANCH  35  36
ATOM     36  C   ARG A   5     -23.896 -11.195  -4.884  1.00  0.00     0.243 C 
ATOM     37  N   ASN A   6     -24.982 -10.402  -4.433  1.00  0.00    -0.341 N 
ATOM     38  O   ARG A   5     -23.965 -12.455  -4.867  1.00  0.00    -0.273 OA
ATOM     39  H   UNL     1     -24.930  -9.364  -4.552  1.00  0.00     0.164 HD
BRANCH  37  40
ATOM     40  CA  ASN A   6     -26.189 -10.994  -3.883  1.00  0.00     0.201 C 
BRANCH  40  41
ATOM     41  C   ASN A   6     -27.052 -11.522  -4.997  1.00  0.00     0.326 C 
ATOM     42  O   ASN A   6     -27.151 -10.892  -6.084  1.00  0.00    -0.250 OA
BRANCH  41  43
ATOM     43  OXT ASN A   6     -27.773 -12.698  -4.811  1.00  0.00    -0.480 OA
ATOM     44  H   UNL     1     -28.370 -13.063  -5.543  1.00  0.00     0.296 HD
ENDBRANCH  41  43
ENDBRANCH  40  41
BRANCH  40  45
ATOM     45  CB  ASN A   6     -26.929  -9.934  -3.062  1.00  0.00     0.136 C 
BRANCH  45  46
ATOM     46  CG  ASN A   6     -28.019 -10.549  -2.252  1.00  0.00     0.220 C 
ATOM     47  ND2 ASN A   6     -27.701 -11.241  -1.053  1.00  0.00    -0.370 N 
ATOM     48  OD1 ASN A   6     -29.213 -10.483  -2.643  1.00  0.00    -0.275 OA
ATOM     49  H   UNL     1     -28.456 -11.688  -0.487  1.00  0.00     0.159 HD
ATOM     50  H   UNL     1     -26.713 -11.314  -0.724  1.00  0.00     0.159 HD
ENDBRANCH  45  46
ENDBRANCH  40  45
ENDBRANCH  37  40
ENDBRANCH  35  36
BRANCH  35  51
ATOM     51  CB  ARG A   5     -22.647 -10.519  -6.914  1.00  0.00     0.037 C 
BRANCH  51  52
ATOM     52  CG  ARG A   5     -21.460  -9.719  -7.458  1.00  0.00     0.024 C 
BRANCH  52  53
ATOM     53  CD  ARG A   5     -21.602  -9.480  -8.962  1.00  0.00     0.116 C 
BRANCH  53  54
ATOM     54  NE  ARG A   5     -21.190  -8.117  -9.282  1.00  0.00    -0.357 N 
ATOM     55  CZ  ARG A   5     -20.075  -7.775 -10.104  1.00  0.00     0.185 C 
ATOM     56  NH2 ARG A   5     -19.200  -8.774 -10.616  1.00  0.00    -0.370 N 
ATOM     57  H   UNL     1     -21.775  -7.342  -8.893  1.00  0.00     0.163 HD
ATOM     58  H   UNL     1     -19.097  -9.711 -10.171  1.00  0.00     0.159 HD
ATOM     59  H   UNL     1     -18.494  -8.518 -11.341  1.00  0.00     0.159 HD
BRANCH  55  60
ATOM     60  NH1 ARG A   5     -19.847  -6.533 -10.392  1.00  0.00    -0.270 NA
ATOM     61  H   UNL     1     -20.457  -5.762 -10.039  1.00  0.00     0.191 HD
ENDBRANCH  55  60
ENDBRANCH  53  54
ENDBRANCH  52  53
ENDBRANCH  51  52
ENDBRANCH  35  51
ENDBRANCH  32  35
ENDBRANCH  30  31
BRANCH  30  62
ATOM     62  CB  ASN A   4     -19.669 -11.710  -1.516  1.00  0.00     0.134 C 
BRANCH  62  63
ATOM     63  CG  ASN A   4     -20.336 -12.944  -0.990  1.00  0.00     0.220 C 
ATOM     64  ND2 ASN A   4     -19.702 -14.217  -1.116  1.00  0.00    -0.370 N 
ATOM     65  OD1 ASN A   4     -21.478 -12.864  -0.466  1.00  0.00    -0.275 OA
ATOM     66  H   UNL     1     -20.174 -15.078  -0.762  1.00  0.00     0.159 HD
ATOM     67  H   UNL     1     -18.764 -14.303  -1.567  1.00  0.00     0.159 HD
ENDBRANCH  62  63
ENDBRANCH  30  62
ENDBRANCH   3  30
TORSDOF 28
