REMARK SMILES C[C@H](NC(=O)[C@H](Cc1c[nH]cn1)NC(=O)[C@H](Cc1ccccc1)NC(=O)[C@@H](N)CO)C(=O)N[C@@H](CCCNC(=N)N)C(=O)N[C@@H](CC(N)=O)C(=O)O
REMARK SMILES IDX 4 1 5 2 3 3 6 5 13 6 14 7 15 8 16 10 24 11 25 12 26 13 27 15
REMARK SMILES IDX 28 16 29 19 30 20 17 22 18 23 19 24 23 25 20 26 22 27 21 28
REMARK SMILES IDX 7 29 8 30 12 31 9 32 11 33 10 34 2 36 1 37 31 38 33 39 32 40
REMARK SMILES IDX 34 42 42 43 44 44 43 45 45 47 50 48 51 49 52 50 46 52 47 53
REMARK SMILES IDX 48 54 49 55 35 58 36 59 37 60 38 61 39 62 41 63 40 67
REMARK H PARENT 3 4 13 9 24 14 28 17 28 18 30 21 10 35 33 41 44 46 52 51 48 56
REMARK H PARENT 48 57 38 64 41 65 41 66 40 68
ROOT
ATOM      1  C   HIS A   3     -18.390 -10.533  -4.861  1.00  0.00     0.243 C 
ATOM      2  O   HIS A   3     -18.755 -11.389  -5.713  1.00  0.00    -0.273 OA
ATOM      3  N   ALA A   4     -18.820 -10.612  -3.505  1.00  0.00    -0.343 N 
ATOM      4  H   UNL     1     -18.465  -9.899  -2.827  1.00  0.00     0.164 HD
ENDROOT
BRANCH   1   5
ATOM      5  CA  HIS A   3     -17.464  -9.427  -5.242  1.00  0.00     0.177 C 
BRANCH   5   6
ATOM      6  N   HIS A   3     -16.218  -9.994  -5.723  1.00  0.00    -0.342 N 
ATOM      7  C   PHE A   2     -15.259 -10.540  -4.824  1.00  0.00     0.243 C 
ATOM      8  O   PHE A   2     -15.480 -10.575  -3.582  1.00  0.00    -0.273 OA
ATOM      9  H   UNL     1     -16.030 -10.021  -6.752  1.00  0.00     0.164 HD
BRANCH   7  10
ATOM     10  CA  PHE A   2     -13.980 -11.059  -5.384  1.00  0.00     0.175 C 
BRANCH  10  11
ATOM     11  N   PHE A   2     -12.858 -10.482  -4.662  1.00  0.00    -0.343 N 
ATOM     12  C   SER A   1     -12.599  -9.079  -4.707  1.00  0.00     0.239 C 
ATOM     13  O   SER A   1     -13.360  -8.309  -5.356  1.00  0.00    -0.273 OA
ATOM     14  H   UNL     1     -12.224 -11.100  -4.105  1.00  0.00     0.164 HD
BRANCH  12  15
ATOM     15  CA  SER A   1     -11.438  -8.536  -3.931  1.00  0.00     0.167 C 
BRANCH  15  16
ATOM     16  N   SER A   1     -10.850  -7.388  -4.623  1.00  0.00    -0.318 NA
ATOM     17  H   UNL     1     -11.542  -6.606  -4.695  1.00  0.00     0.119 HD
ATOM     18  H   UNL     1     -10.031  -7.044  -4.072  1.00  0.00     0.119 HD
ENDBRANCH  15  16
BRANCH  15  19
ATOM     19  CB  SER A   1     -11.842  -8.203  -2.479  1.00  0.00     0.184 C 
BRANCH  19  20
ATOM     20  OG  SER A   1     -12.063  -6.828  -2.319  1.00  0.00    -0.394 OA
ATOM     21  H   UNL     1     -12.320  -6.698  -1.369  1.00  0.00     0.210 HD
ENDBRANCH  19  20
ENDBRANCH  15  19
ENDBRANCH  12  15
ENDBRANCH  10  11
BRANCH  10  22
ATOM     22  CB  PHE A   2     -13.967 -12.594  -5.326  1.00  0.00     0.070 C 
BRANCH  22  23
ATOM     23  CG  PHE A   2     -12.884 -13.198  -6.183  1.00  0.00    -0.045 A 
ATOM     24  CD1 PHE A   2     -12.723 -12.806  -7.526  1.00  0.00     0.004 A 
ATOM     25  CD2 PHE A   2     -12.092 -14.243  -5.682  1.00  0.00     0.004 A 
ATOM     26  CE1 PHE A   2     -11.747 -13.399  -8.324  1.00  0.00     0.000 A 
ATOM     27  CE2 PHE A   2     -11.134 -14.853  -6.495  1.00  0.00     0.000 A 
ATOM     28  CZ  PHE A   2     -10.955 -14.424  -7.811  1.00  0.00     0.000 A 
ENDBRANCH  22  23
ENDBRANCH  10  22
ENDBRANCH   7  10
ENDBRANCH   5   6
BRANCH   5  29
ATOM     29  CB  HIS A   3     -18.106  -8.510  -6.291  1.00  0.00     0.093 C 
BRANCH  29  30
ATOM     30  CG  HIS A   3     -17.499  -7.139  -6.261  1.00  0.00     0.061 A 
ATOM     31  ND1 HIS A   3     -16.395  -6.791  -6.952  1.00  0.00    -0.242 NA
ATOM     32  CD2 HIS A   3     -17.906  -6.089  -5.468  1.00  0.00     0.107 A 
ATOM     33  CE1 HIS A   3     -16.166  -5.516  -6.575  1.00  0.00     0.196 A 
ATOM     34  NE2 HIS A   3     -17.064  -5.066  -5.678  1.00  0.00    -0.351 N 
ATOM     35  H   UNL     1     -17.092  -4.124  -5.230  1.00  0.00     0.167 HD
ENDBRANCH  29  30
ENDBRANCH   5  29
ENDBRANCH   1   5
BRANCH   3  36
ATOM     36  CA  ALA A   4     -19.824 -11.556  -3.047  1.00  0.00     0.168 C 
ATOM     37  CB  ALA A   4     -19.716 -11.725  -1.533  1.00  0.00     0.041 C 
BRANCH  36  38
ATOM     38  C   ALA A   4     -21.166 -11.053  -3.465  1.00  0.00     0.242 C 
ATOM     39  N   ARG A   5     -21.502 -11.138  -4.844  1.00  0.00    -0.343 N 
ATOM     40  O   ALA A   4     -21.968 -10.541  -2.637  1.00  0.00    -0.273 OA
ATOM     41  H   UNL     1     -21.063 -11.903  -5.402  1.00  0.00     0.164 HD
BRANCH  39  42
ATOM     42  CA  ARG A   5     -22.678 -10.496  -5.388  1.00  0.00     0.171 C 
BRANCH  42  43
ATOM     43  C   ARG A   5     -23.896 -11.194  -4.886  1.00  0.00     0.243 C 
ATOM     44  N   ASN A   6     -24.982 -10.402  -4.433  1.00  0.00    -0.341 N 
ATOM     45  O   ARG A   5     -23.965 -12.454  -4.868  1.00  0.00    -0.273 OA
ATOM     46  H   UNL     1     -24.931  -9.364  -4.552  1.00  0.00     0.164 HD
BRANCH  44  47
ATOM     47  CA  ASN A   6     -26.189 -10.994  -3.883  1.00  0.00     0.201 C 
BRANCH  47  48
ATOM     48  C   ASN A   6     -27.052 -11.522  -4.997  1.00  0.00     0.326 C 
ATOM     49  O   ASN A   6     -27.151 -10.892  -6.084  1.00  0.00    -0.250 OA
BRANCH  48  50
ATOM     50  OXT ASN A   6     -27.773 -12.698  -4.811  1.00  0.00    -0.480 OA
ATOM     51  H   UNL     1     -28.370 -13.063  -5.543  1.00  0.00     0.296 HD
ENDBRANCH  48  50
ENDBRANCH  47  48
BRANCH  47  52
ATOM     52  CB  ASN A   6     -26.929  -9.934  -3.062  1.00  0.00     0.136 C 
BRANCH  52  53
ATOM     53  CG  ASN A   6     -28.019 -10.549  -2.252  1.00  0.00     0.220 C 
ATOM     54  ND2 ASN A   6     -27.701 -11.241  -1.053  1.00  0.00    -0.370 N 
ATOM     55  OD1 ASN A   6     -29.213 -10.483  -2.643  1.00  0.00    -0.275 OA
ATOM     56  H   UNL     1     -28.456 -11.688  -0.487  1.00  0.00     0.159 HD
ATOM     57  H   UNL     1     -26.713 -11.314  -0.724  1.00  0.00     0.159 HD
ENDBRANCH  52  53
ENDBRANCH  47  52
ENDBRANCH  44  47
ENDBRANCH  42  43
BRANCH  42  58
ATOM     58  CB  ARG A   5     -22.649 -10.518  -6.917  1.00  0.00     0.037 C 
BRANCH  58  59
ATOM     59  CG  ARG A   5     -21.462  -9.716  -7.459  1.00  0.00     0.024 C 
BRANCH  59  60
ATOM     60  CD  ARG A   5     -21.602  -9.477  -8.964  1.00  0.00     0.116 C 
BRANCH  60  61
ATOM     61  NE  ARG A   5     -21.186  -8.116  -9.285  1.00  0.00    -0.357 N 
ATOM     62  CZ  ARG A   5     -20.069  -7.777 -10.102  1.00  0.00     0.185 C 
ATOM     63  NH2 ARG A   5     -19.198  -8.781 -10.617  1.00  0.00    -0.370 N 
ATOM     64  H   UNL     1     -21.768  -7.335  -8.903  1.00  0.00     0.163 HD
ATOM     65  H   UNL     1     -18.498  -8.536 -11.353  1.00  0.00     0.159 HD
ATOM     66  H   UNL     1     -19.097  -9.716 -10.169  1.00  0.00     0.159 HD
BRANCH  62  67
ATOM     67  NH1 ARG A   5     -19.849  -6.531 -10.378  1.00  0.00    -0.270 NA
ATOM     68  H   UNL     1     -19.043  -6.232 -10.972  1.00  0.00     0.191 HD
ENDBRANCH  62  67
ENDBRANCH  60  61
ENDBRANCH  59  60
ENDBRANCH  58  59
ENDBRANCH  42  58
ENDBRANCH  39  42
ENDBRANCH  36  38
ENDBRANCH   3  36
TORSDOF 26
