REMARK SMILES CC(C)C[C@H](NC(=O)[C@H](Cc1c[nH]cn1)NC(=O)[C@H](Cc1ccccc1)NC(=O)[C@@H](N)CO)C(=O)N[C@@H](CCCNC(=N)N)C(=O)N[C@@H](C)C(=O)O
REMARK SMILES IDX 7 1 8 2 6 3 9 5 16 6 17 7 18 8 19 10 27 11 28 12 29 13 30 15
REMARK SMILES IDX 31 16 32 19 33 20 20 22 21 23 22 24 26 25 23 26 25 27 24 28
REMARK SMILES IDX 10 29 11 30 15 31 12 32 14 33 13 34 5 36 34 37 36 38 35 39
REMARK SMILES IDX 37 41 45 42 47 43 46 44 48 46 49 47 50 48 51 49 52 50 38 52
REMARK SMILES IDX 39 53 40 54 41 55 42 56 44 57 43 61 4 63 2 64 1 65 3 66
REMARK H PARENT 6 4 16 9 27 14 31 17 31 18 33 21 13 35 36 40 47 45 52 51 41 58
REMARK H PARENT 44 59 44 60 43 62
ROOT
ATOM      1  C   HIS A   3     -18.388 -10.524  -4.871  1.00  0.00     0.243 C 
ATOM      2  O   HIS A   3     -18.746 -11.390  -5.716  1.00  0.00    -0.273 OA
ATOM      3  N   LEU A   4     -18.845 -10.572  -3.525  1.00  0.00    -0.342 N 
ATOM      4  H   UNL     1     -18.583  -9.790  -2.882  1.00  0.00     0.164 HD
ENDROOT
BRANCH   1   5
ATOM      5  CA  HIS A   3     -17.459  -9.423  -5.250  1.00  0.00     0.177 C 
BRANCH   5   6
ATOM      6  N   HIS A   3     -16.215  -9.995  -5.728  1.00  0.00    -0.342 N 
ATOM      7  C   PHE A   2     -15.259 -10.542  -4.826  1.00  0.00     0.243 C 
ATOM      8  O   PHE A   2     -15.482 -10.575  -3.585  1.00  0.00    -0.273 OA
ATOM      9  H   UNL     1     -16.026 -10.023  -6.756  1.00  0.00     0.164 HD
BRANCH   7  10
ATOM     10  CA  PHE A   2     -13.980 -11.061  -5.384  1.00  0.00     0.175 C 
BRANCH  10  11
ATOM     11  N   PHE A   2     -12.859 -10.484  -4.662  1.00  0.00    -0.343 N 
ATOM     12  C   SER A   1     -12.602  -9.082  -4.709  1.00  0.00     0.239 C 
ATOM     13  O   SER A   1     -13.365  -8.313  -5.357  1.00  0.00    -0.273 OA
ATOM     14  H   UNL     1     -12.223 -11.101  -4.106  1.00  0.00     0.164 HD
BRANCH  12  15
ATOM     15  CA  SER A   1     -11.438  -8.537  -3.934  1.00  0.00     0.167 C 
BRANCH  15  16
ATOM     16  N   SER A   1     -10.845  -7.380  -4.608  1.00  0.00    -0.318 NA
ATOM     17  H   UNL     1     -10.478  -7.689  -5.538  1.00  0.00     0.119 HD
ATOM     18  H   UNL     1     -11.573  -6.651  -4.790  1.00  0.00     0.119 HD
ENDBRANCH  15  16
BRANCH  15  19
ATOM     19  CB  SER A   1     -11.843  -8.201  -2.485  1.00  0.00     0.184 C 
BRANCH  19  20
ATOM     20  OG  SER A   1     -12.055  -6.823  -2.318  1.00  0.00    -0.394 OA
ATOM     21  H   UNL     1     -11.173  -6.417  -2.110  1.00  0.00     0.210 HD
ENDBRANCH  19  20
ENDBRANCH  15  19
ENDBRANCH  12  15
ENDBRANCH  10  11
BRANCH  10  22
ATOM     22  CB  PHE A   2     -13.967 -12.596  -5.326  1.00  0.00     0.070 C 
BRANCH  22  23
ATOM     23  CG  PHE A   2     -12.884 -13.199  -6.184  1.00  0.00    -0.045 A 
ATOM     24  CD1 PHE A   2     -12.723 -12.807  -7.526  1.00  0.00     0.004 A 
ATOM     25  CD2 PHE A   2     -12.092 -14.244  -5.682  1.00  0.00     0.004 A 
ATOM     26  CE1 PHE A   2     -11.747 -13.399  -8.324  1.00  0.00     0.000 A 
ATOM     27  CE2 PHE A   2     -11.134 -14.853  -6.495  1.00  0.00     0.000 A 
ATOM     28  CZ  PHE A   2     -10.955 -14.424  -7.811  1.00  0.00     0.000 A 
ENDBRANCH  22  23
ENDBRANCH  10  22
ENDBRANCH   7  10
ENDBRANCH   5   6
BRANCH   5  29
ATOM     29  CB  HIS A   3     -18.101  -8.506  -6.299  1.00  0.00     0.093 C 
BRANCH  29  30
ATOM     30  CG  HIS A   3     -17.497  -7.134  -6.262  1.00  0.00     0.061 A 
ATOM     31  ND1 HIS A   3     -16.390  -6.783  -6.946  1.00  0.00    -0.242 NA
ATOM     32  CD2 HIS A   3     -17.913  -6.086  -5.471  1.00  0.00     0.107 A 
ATOM     33  CE1 HIS A   3     -16.167  -5.508  -6.565  1.00  0.00     0.196 A 
ATOM     34  NE2 HIS A   3     -17.072  -5.062  -5.673  1.00  0.00    -0.351 N 
ATOM     35  H   UNL     1     -17.105  -4.120  -5.225  1.00  0.00     0.167 HD
ENDBRANCH  29  30
ENDBRANCH   5  29
ENDBRANCH   1   5
BRANCH   3  36
ATOM     36  CA  LEU A   4     -19.815 -11.541  -3.055  1.00  0.00     0.171 C 
BRANCH  36  37
ATOM     37  C   LEU A   4     -21.170 -11.059  -3.463  1.00  0.00     0.243 C 
ATOM     38  N   ARG A   5     -21.507 -11.139  -4.841  1.00  0.00    -0.343 N 
ATOM     39  O   LEU A   4     -21.972 -10.549  -2.633  1.00  0.00    -0.273 OA
ATOM     40  H   UNL     1     -21.061 -11.896  -5.406  1.00  0.00     0.164 HD
BRANCH  38  41
ATOM     41  CA  ARG A   5     -22.683 -10.496  -5.385  1.00  0.00     0.171 C 
BRANCH  41  42
ATOM     42  C   ARG A   5     -23.902 -11.194  -4.881  1.00  0.00     0.243 C 
ATOM     43  N   ALA A   6     -24.984 -10.404  -4.413  1.00  0.00    -0.341 N 
ATOM     44  O   ARG A   5     -23.970 -12.454  -4.870  1.00  0.00    -0.273 OA
ATOM     45  H   UNL     1     -24.922  -9.363  -4.494  1.00  0.00     0.164 HD
BRANCH  43  46
ATOM     46  CA  ALA A   6     -26.196 -11.003  -3.874  1.00  0.00     0.189 C 
ATOM     47  CB  ALA A   6     -26.948  -9.970  -3.039  1.00  0.00     0.043 C 
BRANCH  46  48
ATOM     48  C   ALA A   6     -27.061 -11.517  -4.990  1.00  0.00     0.325 C 
ATOM     49  O   ALA A   6     -27.145 -10.889  -6.080  1.00  0.00    -0.250 OA
BRANCH  48  50
ATOM     50  OXT ALA A   6     -27.808 -12.676  -4.802  1.00  0.00    -0.480 OA
ATOM     51  H   UNL     1     -28.408 -13.033  -5.536  1.00  0.00     0.296 HD
ENDBRANCH  48  50
ENDBRANCH  46  48
ENDBRANCH  43  46
ENDBRANCH  41  42
BRANCH  41  52
ATOM     52  CB  ARG A   5     -22.652 -10.517  -6.914  1.00  0.00     0.037 C 
BRANCH  52  53
ATOM     53  CG  ARG A   5     -21.463  -9.719  -7.457  1.00  0.00     0.024 C 
BRANCH  53  54
ATOM     54  CD  ARG A   5     -21.602  -9.481  -8.962  1.00  0.00     0.116 C 
BRANCH  54  55
ATOM     55  NE  ARG A   5     -21.190  -8.118  -9.282  1.00  0.00    -0.357 N 
ATOM     56  CZ  ARG A   5     -20.072  -7.775 -10.101  1.00  0.00     0.185 C 
ATOM     57  NH2 ARG A   5     -19.200  -8.775 -10.616  1.00  0.00    -0.370 N 
ATOM     58  H   UNL     1     -21.778  -7.343  -8.897  1.00  0.00     0.163 HD
ATOM     59  H   UNL     1     -19.100  -9.714 -10.177  1.00  0.00     0.159 HD
ATOM     60  H   UNL     1     -18.493  -8.517 -11.341  1.00  0.00     0.159 HD
BRANCH  56  61
ATOM     61  NH1 ARG A   5     -19.841  -6.533 -10.384  1.00  0.00    -0.270 NA
ATOM     62  H   UNL     1     -20.451  -5.762 -10.030  1.00  0.00     0.191 HD
ENDBRANCH  56  61
ENDBRANCH  54  55
ENDBRANCH  53  54
ENDBRANCH  52  53
ENDBRANCH  41  52
ENDBRANCH  38  41
ENDBRANCH  36  37
BRANCH  36  63
ATOM     63  CB  LEU A   4     -19.651 -11.691  -1.535  1.00  0.00     0.038 C 
BRANCH  63  64
ATOM     64  CG  LEU A   4     -20.295 -12.955  -0.947  1.00  0.00    -0.015 C 
ATOM     65  CD1 LEU A   4     -19.611 -14.232  -1.462  1.00  0.00     0.007 C 
ATOM     66  CD2 LEU A   4     -20.194 -12.898   0.582  1.00  0.00     0.007 C 
ENDBRANCH  63  64
ENDBRANCH  36  63
ENDBRANCH   3  36
TORSDOF 26
