REMARK SMILES CC(C)C[C@H](NC(=O)[C@H](Cc1ccccc1)NC(=O)[C@H](C)N)C(=O)N[C@@H](CCCNC(=N)N)C(=O)N[C@@H](CCCNC(=N)N)C(=O)N[C@@H](CC(N)=O)C(=O)O
REMARK SMILES IDX 26 1 25 2 23 3 24 4 5 6 6 7 7 8 8 9 9 11 17 12 18 13 19 14
REMARK SMILES IDX 20 16 21 17 22 18 10 21 11 22 12 23 16 24 13 25 15 26 14 27
REMARK SMILES IDX 4 28 2 29 1 30 3 31 34 32 36 33 35 34 37 36 45 37 47 38
REMARK SMILES IDX 46 39 48 41 53 42 54 43 55 44 49 46 50 47 51 48 52 49 38 52
REMARK SMILES IDX 39 53 40 54 41 55 42 56 44 57 43 61 27 63 28 64 29 65 30 66
REMARK SMILES IDX 31 67 33 68 32 72
REMARK H PARENT 25 5 6 10 17 15 22 19 22 20 36 35 47 40 55 45 51 50 51 51
REMARK H PARENT 41 58 44 59 44 60 43 62 30 69 33 70 33 71 32 73
ROOT
ATOM      1  CA  ARG A   4     -19.822 -11.544  -3.048  1.00  0.00     0.171 C 
ENDROOT
BRANCH   1   2
ATOM      2  N   ARG A   4     -18.847 -10.584  -3.519  1.00  0.00    -0.343 N 
ATOM      3  C   LEU A   3     -18.385 -10.546  -4.865  1.00  0.00     0.243 C 
ATOM      4  O   LEU A   3     -18.750 -11.406  -5.711  1.00  0.00    -0.273 OA
ATOM      5  H   UNL     1     -18.589  -9.798  -2.878  1.00  0.00     0.164 HD
BRANCH   3   6
ATOM      6  CA  LEU A   3     -17.452  -9.454  -5.243  1.00  0.00     0.171 C 
BRANCH   6   7
ATOM      7  N   LEU A   3     -16.214 -10.021  -5.731  1.00  0.00    -0.343 N 
ATOM      8  C   PHE A   2     -15.251 -10.548  -4.827  1.00  0.00     0.243 C 
ATOM      9  O   PHE A   2     -15.472 -10.577  -3.584  1.00  0.00    -0.273 OA
ATOM     10  H   UNL     1     -16.038 -10.071  -6.760  1.00  0.00     0.164 HD
BRANCH   8  11
ATOM     11  CA  PHE A   2     -13.973 -11.063  -5.384  1.00  0.00     0.175 C 
BRANCH  11  12
ATOM     12  N   PHE A   2     -12.852 -10.488  -4.660  1.00  0.00    -0.343 N 
ATOM     13  C   ALA A   1     -12.592  -9.087  -4.704  1.00  0.00     0.237 C 
ATOM     14  O   ALA A   1     -13.351  -8.313  -5.353  1.00  0.00    -0.273 OA
ATOM     15  H   UNL     1     -12.216 -11.107  -4.107  1.00  0.00     0.164 HD
BRANCH  13  16
ATOM     16  CA  ALA A   1     -11.435  -8.545  -3.923  1.00  0.00     0.138 C 
ATOM     17  CB  ALA A   1     -11.886  -8.213  -2.501  1.00  0.00     0.035 C 
BRANCH  16  18
ATOM     18  N   ALA A   1     -10.893  -7.358  -4.578  1.00  0.00    -0.320 NA
ATOM     19  H   UNL     1     -10.539  -7.636  -5.522  1.00  0.00     0.119 HD
ATOM     20  H   UNL     1     -10.054  -7.039  -4.040  1.00  0.00     0.119 HD
ENDBRANCH  16  18
ENDBRANCH  13  16
ENDBRANCH  11  12
BRANCH  11  21
ATOM     21  CB  PHE A   2     -13.964 -12.598  -5.327  1.00  0.00     0.070 C 
BRANCH  21  22
ATOM     22  CG  PHE A   2     -12.882 -13.201  -6.184  1.00  0.00    -0.045 A 
ATOM     23  CD1 PHE A   2     -12.722 -12.808  -7.527  1.00  0.00     0.004 A 
ATOM     24  CD2 PHE A   2     -12.091 -14.245  -5.683  1.00  0.00     0.004 A 
ATOM     25  CE1 PHE A   2     -11.746 -13.400  -8.324  1.00  0.00     0.000 A 
ATOM     26  CE2 PHE A   2     -11.132 -14.854  -6.496  1.00  0.00     0.000 A 
ATOM     27  CZ  PHE A   2     -10.954 -14.425  -7.812  1.00  0.00     0.000 A 
ENDBRANCH  21  22
ENDBRANCH  11  21
ENDBRANCH   8  11
ENDBRANCH   6   7
BRANCH   6  28
ATOM     28  CB  LEU A   3     -18.098  -8.525  -6.277  1.00  0.00     0.038 C 
BRANCH  28  29
ATOM     29  CG  LEU A   3     -17.543  -7.090  -6.223  1.00  0.00    -0.015 C 
ATOM     30  CD1 LEU A   3     -18.189  -6.262  -7.337  1.00  0.00     0.007 C 
ATOM     31  CD2 LEU A   3     -17.813  -6.422  -4.860  1.00  0.00     0.007 C 
ENDBRANCH  28  29
ENDBRANCH   6  28
ENDBRANCH   3   6
ENDBRANCH   1   2
BRANCH   1  32
ATOM     32  C   ARG A   4     -21.172 -11.059  -3.463  1.00  0.00     0.243 C 
ATOM     33  N   ARG A   5     -21.505 -11.140  -4.843  1.00  0.00    -0.343 N 
ATOM     34  O   ARG A   4     -21.977 -10.547  -2.637  1.00  0.00    -0.273 OA
ATOM     35  H   UNL     1     -21.063 -11.903  -5.403  1.00  0.00     0.164 HD
BRANCH  33  36
ATOM     36  CA  ARG A   5     -22.679 -10.497  -5.388  1.00  0.00     0.171 C 
BRANCH  36  37
ATOM     37  C   ARG A   5     -23.898 -11.195  -4.886  1.00  0.00     0.243 C 
ATOM     38  N   ASN A   6     -24.982 -10.402  -4.433  1.00  0.00    -0.341 N 
ATOM     39  O   ARG A   5     -23.966 -12.455  -4.868  1.00  0.00    -0.273 OA
ATOM     40  H   UNL     1     -24.931  -9.364  -4.552  1.00  0.00     0.164 HD
BRANCH  38  41
ATOM     41  CA  ASN A   6     -26.189 -10.994  -3.883  1.00  0.00     0.201 C 
BRANCH  41  42
ATOM     42  C   ASN A   6     -27.053 -11.522  -4.997  1.00  0.00     0.326 C 
ATOM     43  O   ASN A   6     -27.151 -10.892  -6.084  1.00  0.00    -0.250 OA
BRANCH  42  44
ATOM     44  OXT ASN A   6     -27.773 -12.698  -4.811  1.00  0.00    -0.480 OA
ATOM     45  H   UNL     1     -28.370 -13.063  -5.543  1.00  0.00     0.296 HD
ENDBRANCH  42  44
ENDBRANCH  41  42
BRANCH  41  46
ATOM     46  CB  ASN A   6     -26.930  -9.934  -3.062  1.00  0.00     0.136 C 
BRANCH  46  47
ATOM     47  CG  ASN A   6     -28.019 -10.549  -2.252  1.00  0.00     0.220 C 
ATOM     48  ND2 ASN A   6     -27.701 -11.241  -1.053  1.00  0.00    -0.370 N 
ATOM     49  OD1 ASN A   6     -29.213 -10.484  -2.643  1.00  0.00    -0.275 OA
ATOM     50  H   UNL     1     -26.713 -11.314  -0.724  1.00  0.00     0.159 HD
ATOM     51  H   UNL     1     -28.456 -11.688  -0.487  1.00  0.00     0.159 HD
ENDBRANCH  46  47
ENDBRANCH  41  46
ENDBRANCH  38  41
ENDBRANCH  36  37
BRANCH  36  52
ATOM     52  CB  ARG A   5     -22.649 -10.519  -6.916  1.00  0.00     0.037 C 
BRANCH  52  53
ATOM     53  CG  ARG A   5     -21.461  -9.719  -7.459  1.00  0.00     0.024 C 
BRANCH  53  54
ATOM     54  CD  ARG A   5     -21.601  -9.480  -8.963  1.00  0.00     0.116 C 
BRANCH  54  55
ATOM     55  NE  ARG A   5     -21.189  -8.117  -9.282  1.00  0.00    -0.357 N 
ATOM     56  CZ  ARG A   5     -20.075  -7.775 -10.105  1.00  0.00     0.185 C 
ATOM     57  NH2 ARG A   5     -19.200  -8.774 -10.616  1.00  0.00    -0.370 N 
ATOM     58  H   UNL     1     -21.774  -7.342  -8.893  1.00  0.00     0.163 HD
ATOM     59  H   UNL     1     -19.096  -9.710 -10.171  1.00  0.00     0.159 HD
ATOM     60  H   UNL     1     -18.494  -8.517 -11.342  1.00  0.00     0.159 HD
BRANCH  56  61
ATOM     61  NH1 ARG A   5     -19.847  -6.533 -10.392  1.00  0.00    -0.270 NA
ATOM     62  H   UNL     1     -20.457  -5.762 -10.039  1.00  0.00     0.191 HD
ENDBRANCH  56  61
ENDBRANCH  54  55
ENDBRANCH  53  54
ENDBRANCH  52  53
ENDBRANCH  36  52
ENDBRANCH  33  36
ENDBRANCH   1  32
BRANCH   1  63
ATOM     63  CB  ARG A   4     -19.673 -11.689  -1.523  1.00  0.00     0.037 C 
BRANCH  63  64
ATOM     64  CG  ARG A   4     -20.300 -12.968  -0.961  1.00  0.00     0.024 C 
BRANCH  64  65
ATOM     65  CD  ARG A   4     -19.615 -14.254  -1.455  1.00  0.00     0.116 C 
BRANCH  65  66
ATOM     66  NE  ARG A   4     -18.158 -14.189  -1.331  1.00  0.00    -0.357 N 
ATOM     67  CZ  ARG A   4     -17.472 -14.253  -0.072  1.00  0.00     0.185 C 
ATOM     68  NH2 ARG A   4     -16.049 -14.120  -0.036  1.00  0.00    -0.370 N 
ATOM     69  H   UNL     1     -17.592 -14.122  -2.207  1.00  0.00     0.163 HD
ATOM     70  H   UNL     1     -15.511 -13.967  -0.918  1.00  0.00     0.159 HD
ATOM     71  H   UNL     1     -15.528 -14.168   0.867  1.00  0.00     0.159 HD
BRANCH  67  72
ATOM     72  NH1 ARG A   4     -18.134 -14.437   1.027  1.00  0.00    -0.270 NA
ATOM     73  H   UNL     1     -17.657 -14.490   1.954  1.00  0.00     0.191 HD
ENDBRANCH  67  72
ENDBRANCH  65  66
ENDBRANCH  64  65
ENDBRANCH  63  64
ENDBRANCH   1  63
TORSDOF 29
