REMARK SMILES CC(C)C[C@H](NC(=O)[C@H](CCCCN)NC(=O)[C@H](Cc1ccccc1)NC(=O)[C@@H](N)CO)C(=O)N[C@@H](CC(N)=O)C(=O)N[C@@H](CC(N)=O)C(=O)O
REMARK SMILES IDX 7 1 8 2 6 3 9 5 15 6 16 7 17 8 18 10 26 11 27 12 28 13 29 15
REMARK SMILES IDX 30 16 31 19 32 20 19 22 20 23 21 24 25 25 22 26 24 27 23 28
REMARK SMILES IDX 10 29 11 30 12 31 13 32 14 33 5 36 33 37 35 38 34 39 36 41
REMARK SMILES IDX 41 42 43 43 42 44 44 46 49 47 50 48 51 49 45 51 46 52 47 53
REMARK SMILES IDX 48 54 37 57 38 58 39 59 40 60 4 63 2 64 1 65 3 66
REMARK H PARENT 6 4 15 9 26 14 30 17 30 18 32 21 14 34 14 35 35 40 43 45 51 50
REMARK H PARENT 47 55 47 56 39 61 39 62
ROOT
ATOM      1  C   LYS A   3     -18.383 -10.532  -4.866  1.00  0.00     0.243 C 
ATOM      2  O   LYS A   3     -18.745 -11.393  -5.714  1.00  0.00    -0.273 OA
ATOM      3  N   LEU A   4     -18.845 -10.577  -3.523  1.00  0.00    -0.343 N 
ATOM      4  H   UNL     1     -18.584  -9.793  -2.880  1.00  0.00     0.164 HD
ENDROOT
BRANCH   1   5
ATOM      5  CA  LYS A   3     -17.454  -9.432  -5.243  1.00  0.00     0.171 C 
BRANCH   5   6
ATOM      6  N   LYS A   3     -16.211 -10.002  -5.724  1.00  0.00    -0.343 N 
ATOM      7  C   PHE A   2     -15.254 -10.543  -4.823  1.00  0.00     0.243 C 
ATOM      8  O   PHE A   2     -15.477 -10.577  -3.581  1.00  0.00    -0.273 OA
ATOM      9  H   UNL     1     -16.021 -10.032  -6.751  1.00  0.00     0.164 HD
BRANCH   7  10
ATOM     10  CA  PHE A   2     -13.977 -11.060  -5.382  1.00  0.00     0.175 C 
BRANCH  10  11
ATOM     11  N   PHE A   2     -12.856 -10.484  -4.659  1.00  0.00    -0.343 N 
ATOM     12  C   SER A   1     -12.596  -9.083  -4.702  1.00  0.00     0.239 C 
ATOM     13  O   SER A   1     -13.354  -8.308  -5.350  1.00  0.00    -0.273 OA
ATOM     14  H   UNL     1     -12.221 -11.103  -4.104  1.00  0.00     0.164 HD
BRANCH  12  15
ATOM     15  CA  SER A   1     -11.428  -8.546  -3.932  1.00  0.00     0.167 C 
BRANCH  15  16
ATOM     16  N   SER A   1     -10.863  -7.381  -4.610  1.00  0.00    -0.318 NA
ATOM     17  H   UNL     1     -10.000  -7.089  -4.094  1.00  0.00     0.119 HD
ATOM     18  H   UNL     1     -10.541  -7.676  -5.561  1.00  0.00     0.119 HD
ENDBRANCH  15  16
BRANCH  15  19
ATOM     19  CB  SER A   1     -11.840  -8.203  -2.486  1.00  0.00     0.184 C 
BRANCH  19  20
ATOM     20  OG  SER A   1     -12.064  -6.827  -2.332  1.00  0.00    -0.394 OA
ATOM     21  H   UNL     1     -12.953  -6.643  -2.733  1.00  0.00     0.210 HD
ENDBRANCH  19  20
ENDBRANCH  15  19
ENDBRANCH  12  15
ENDBRANCH  10  11
BRANCH  10  22
ATOM     22  CB  PHE A   2     -13.965 -12.596  -5.326  1.00  0.00     0.070 C 
BRANCH  22  23
ATOM     23  CG  PHE A   2     -12.883 -13.199  -6.183  1.00  0.00    -0.045 A 
ATOM     24  CD1 PHE A   2     -12.723 -12.807  -7.526  1.00  0.00     0.004 A 
ATOM     25  CD2 PHE A   2     -12.091 -14.244  -5.682  1.00  0.00     0.004 A 
ATOM     26  CE1 PHE A   2     -11.747 -13.399  -8.324  1.00  0.00     0.000 A 
ATOM     27  CE2 PHE A   2     -11.133 -14.853  -6.495  1.00  0.00     0.000 A 
ATOM     28  CZ  PHE A   2     -10.955 -14.424  -7.811  1.00  0.00     0.000 A 
ENDBRANCH  22  23
ENDBRANCH  10  22
ENDBRANCH   7  10
ENDBRANCH   5   6
BRANCH   5  29
ATOM     29  CB  LYS A   3     -18.099  -8.533  -6.296  1.00  0.00     0.035 C 
BRANCH  29  30
ATOM     30  CG  LYS A   3     -17.517  -7.118  -6.274  1.00  0.00     0.004 C 
BRANCH  30  31
ATOM     31  CD  LYS A   3     -18.199  -6.211  -7.309  1.00  0.00     0.015 C 
BRANCH  31  32
ATOM     32  CE  LYS A   3     -17.701  -6.426  -8.748  1.00  0.00     0.077 C 
BRANCH  32  33
ATOM     33  NZ  LYS A   3     -18.350  -7.578  -9.365  1.00  0.00    -0.330 NA
ATOM     34  H   UNL     1     -19.358  -7.345  -9.517  1.00  0.00     0.118 HD
ATOM     35  H   UNL     1     -17.929  -7.711 -10.313  1.00  0.00     0.118 HD
ENDBRANCH  32  33
ENDBRANCH  31  32
ENDBRANCH  30  31
ENDBRANCH  29  30
ENDBRANCH   5  29
ENDBRANCH   1   5
BRANCH   3  36
ATOM     36  CA  LEU A   4     -19.819 -11.542  -3.057  1.00  0.00     0.171 C 
BRANCH  36  37
ATOM     37  C   LEU A   4     -21.171 -11.057  -3.470  1.00  0.00     0.243 C 
ATOM     38  N   ASN A   5     -21.502 -11.126  -4.852  1.00  0.00    -0.342 N 
ATOM     39  O   LEU A   4     -21.975 -10.550  -2.640  1.00  0.00    -0.273 OA
ATOM     40  H   UNL     1     -21.052 -11.877  -5.422  1.00  0.00     0.164 HD
BRANCH  38  41
ATOM     41  CA  ASN A   5     -22.677 -10.481  -5.400  1.00  0.00     0.180 C 
BRANCH  41  42
ATOM     42  C   ASN A   5     -23.895 -11.184  -4.895  1.00  0.00     0.243 C 
ATOM     43  N   ASN A   6     -24.981 -10.396  -4.435  1.00  0.00    -0.340 N 
ATOM     44  O   ASN A   5     -23.959 -12.445  -4.873  1.00  0.00    -0.273 OA
ATOM     45  H   UNL     1     -24.930  -9.357  -4.549  1.00  0.00     0.164 HD
BRANCH  43  46
ATOM     46  CA  ASN A   6     -26.186 -10.992  -3.884  1.00  0.00     0.201 C 
BRANCH  46  47
ATOM     47  C   ASN A   6     -27.050 -11.522  -4.997  1.00  0.00     0.326 C 
ATOM     48  O   ASN A   6     -27.151 -10.892  -6.084  1.00  0.00    -0.250 OA
BRANCH  47  49
ATOM     49  OXT ASN A   6     -27.768 -12.699  -4.809  1.00  0.00    -0.480 OA
ATOM     50  H   UNL     1     -28.366 -13.065  -5.541  1.00  0.00     0.296 HD
ENDBRANCH  47  49
ENDBRANCH  46  47
BRANCH  46  51
ATOM     51  CB  ASN A   6     -26.929  -9.934  -3.062  1.00  0.00     0.136 C 
BRANCH  51  52
ATOM     52  CG  ASN A   6     -28.018 -10.550  -2.253  1.00  0.00     0.220 C 
ATOM     53  ND2 ASN A   6     -27.700 -11.242  -1.054  1.00  0.00    -0.370 N 
ATOM     54  OD1 ASN A   6     -29.212 -10.484  -2.643  1.00  0.00    -0.275 OA
ATOM     55  H   UNL     1     -28.456 -11.689  -0.488  1.00  0.00     0.159 HD
ATOM     56  H   UNL     1     -26.712 -11.315  -0.725  1.00  0.00     0.159 HD
ENDBRANCH  51  52
ENDBRANCH  46  51
ENDBRANCH  43  46
ENDBRANCH  41  42
BRANCH  41  57
ATOM     57  CB  ASN A   5     -22.647 -10.502  -6.933  1.00  0.00     0.134 C 
BRANCH  57  58
ATOM     58  CG  ASN A   5     -21.465  -9.755  -7.482  1.00  0.00     0.220 C 
ATOM     59  ND2 ASN A   5     -20.417 -10.458  -8.150  1.00  0.00    -0.370 N 
ATOM     60  OD1 ASN A   5     -21.423  -8.499  -7.398  1.00  0.00    -0.275 OA
ATOM     61  H   UNL     1     -20.418 -11.501  -8.196  1.00  0.00     0.159 HD
ATOM     62  H   UNL     1     -19.659  -9.937  -8.640  1.00  0.00     0.159 HD
ENDBRANCH  57  58
ENDBRANCH  41  57
ENDBRANCH  38  41
ENDBRANCH  36  37
BRANCH  36  63
ATOM     63  CB  LEU A   4     -19.656 -11.691  -1.536  1.00  0.00     0.038 C 
BRANCH  63  64
ATOM     64  CG  LEU A   4     -20.297 -12.957  -0.947  1.00  0.00    -0.015 C 
ATOM     65  CD1 LEU A   4     -19.611 -14.232  -1.462  1.00  0.00     0.007 C 
ATOM     66  CD2 LEU A   4     -20.195 -12.898   0.582  1.00  0.00     0.007 C 
ENDBRANCH  63  64
ENDBRANCH  36  63
ENDBRANCH   3  36
TORSDOF 28
