REMARK SMILES CC(C)C[C@H](NC(=O)[C@H](CC(N)=O)NC(=O)[C@H](Cc1ccccc1)NC(=O)[C@@H](N)CO)C(=O)N[C@@H](CCCNC(=N)N)C(=O)NCC(=O)O
REMARK SMILES IDX 7 1 8 2 6 3 9 5 14 6 15 7 16 8 17 10 25 11 26 12 27 13 28 15
REMARK SMILES IDX 29 16 30 19 31 20 18 22 19 23 20 24 24 25 21 26 23 27 22 28
REMARK SMILES IDX 10 29 11 30 12 31 13 32 5 35 32 36 34 37 33 38 35 40 43 41
REMARK SMILES IDX 45 42 44 43 46 45 47 46 48 47 49 48 36 50 37 51 38 52 39 53
REMARK SMILES IDX 40 54 42 55 41 59 4 61 2 62 1 63 3 64
REMARK H PARENT 6 4 14 9 25 14 29 17 29 18 31 21 12 33 12 34 34 39 45 44 49 49
REMARK H PARENT 39 56 42 57 42 58 41 60
ROOT
ATOM      1  C   ASN A   3     -18.389 -10.524  -4.871  1.00  0.00     0.243 C 
ATOM      2  O   ASN A   3     -18.746 -11.390  -5.716  1.00  0.00    -0.273 OA
ATOM      3  N   LEU A   4     -18.846 -10.572  -3.526  1.00  0.00    -0.342 N 
ATOM      4  H   UNL     1     -18.585  -9.789  -2.883  1.00  0.00     0.164 HD
ENDROOT
BRANCH   1   5
ATOM      5  CA  ASN A   3     -17.459  -9.423  -5.250  1.00  0.00     0.180 C 
BRANCH   5   6
ATOM      6  N   ASN A   3     -16.215  -9.995  -5.728  1.00  0.00    -0.342 N 
ATOM      7  C   PHE A   2     -15.258 -10.541  -4.826  1.00  0.00     0.243 C 
ATOM      8  O   PHE A   2     -15.482 -10.575  -3.584  1.00  0.00    -0.273 OA
ATOM      9  H   UNL     1     -16.026 -10.025  -6.756  1.00  0.00     0.164 HD
BRANCH   7  10
ATOM     10  CA  PHE A   2     -13.979 -11.059  -5.384  1.00  0.00     0.175 C 
BRANCH  10  11
ATOM     11  N   PHE A   2     -12.858 -10.483  -4.661  1.00  0.00    -0.343 N 
ATOM     12  C   SER A   1     -12.598  -9.080  -4.707  1.00  0.00     0.239 C 
ATOM     13  O   SER A   1     -13.359  -8.310  -5.356  1.00  0.00    -0.273 OA
ATOM     14  H   UNL     1     -12.224 -11.100  -4.104  1.00  0.00     0.164 HD
BRANCH  12  15
ATOM     15  CA  SER A   1     -11.438  -8.536  -3.931  1.00  0.00     0.167 C 
BRANCH  15  16
ATOM     16  N   SER A   1     -10.850  -7.391  -4.628  1.00  0.00    -0.318 NA
ATOM     17  H   UNL     1     -10.012  -7.061  -4.095  1.00  0.00     0.119 HD
ATOM     18  H   UNL     1     -11.533  -6.600  -4.683  1.00  0.00     0.119 HD
ENDBRANCH  15  16
BRANCH  15  19
ATOM     19  CB  SER A   1     -11.844  -8.202  -2.480  1.00  0.00     0.184 C 
BRANCH  19  20
ATOM     20  OG  SER A   1     -12.062  -6.825  -2.310  1.00  0.00    -0.394 OA
ATOM     21  H   UNL     1     -11.201  -6.425  -2.019  1.00  0.00     0.210 HD
ENDBRANCH  19  20
ENDBRANCH  15  19
ENDBRANCH  12  15
ENDBRANCH  10  11
BRANCH  10  22
ATOM     22  CB  PHE A   2     -13.966 -12.595  -5.326  1.00  0.00     0.070 C 
BRANCH  22  23
ATOM     23  CG  PHE A   2     -12.883 -13.199  -6.183  1.00  0.00    -0.045 A 
ATOM     24  CD1 PHE A   2     -12.723 -12.807  -7.526  1.00  0.00     0.004 A 
ATOM     25  CD2 PHE A   2     -12.092 -14.243  -5.682  1.00  0.00     0.004 A 
ATOM     26  CE1 PHE A   2     -11.747 -13.399  -8.324  1.00  0.00     0.000 A 
ATOM     27  CE2 PHE A   2     -11.134 -14.853  -6.495  1.00  0.00     0.000 A 
ATOM     28  CZ  PHE A   2     -10.955 -14.424  -7.811  1.00  0.00     0.000 A 
ENDBRANCH  22  23
ENDBRANCH  10  22
ENDBRANCH   7  10
ENDBRANCH   5   6
BRANCH   5  29
ATOM     29  CB  ASN A   3     -18.100  -8.507  -6.300  1.00  0.00     0.134 C 
BRANCH  29  30
ATOM     30  CG  ASN A   3     -17.501  -7.131  -6.261  1.00  0.00     0.220 C 
ATOM     31  ND2 ASN A   3     -17.962  -6.167  -5.314  1.00  0.00    -0.370 N 
ATOM     32  OD1 ASN A   3     -16.559  -6.838  -7.043  1.00  0.00    -0.275 OA
ATOM     33  H   UNL     1     -18.725  -6.405  -4.641  1.00  0.00     0.159 HD
ATOM     34  H   UNL     1     -17.535  -5.215  -5.280  1.00  0.00     0.159 HD
ENDBRANCH  29  30
ENDBRANCH   5  29
ENDBRANCH   1   5
BRANCH   3  35
ATOM     35  CA  LEU A   4     -19.817 -11.540  -3.056  1.00  0.00     0.171 C 
BRANCH  35  36
ATOM     36  C   LEU A   4     -21.172 -11.057  -3.462  1.00  0.00     0.243 C 
ATOM     37  N   ARG A   5     -21.513 -11.136  -4.840  1.00  0.00    -0.343 N 
ATOM     38  O   LEU A   4     -21.972 -10.548  -2.631  1.00  0.00    -0.273 OA
ATOM     39  H   UNL     1     -21.065 -11.890  -5.407  1.00  0.00     0.164 HD
BRANCH  37  40
ATOM     40  CA  ARG A   5     -22.690 -10.492  -5.381  1.00  0.00     0.171 C 
BRANCH  40  41
ATOM     41  C   ARG A   5     -23.911 -11.191  -4.875  1.00  0.00     0.243 C 
ATOM     42  N   GLY A   6     -24.993 -10.406  -4.388  1.00  0.00    -0.343 N 
ATOM     43  O   ARG A   5     -23.977 -12.451  -4.871  1.00  0.00    -0.273 OA
ATOM     44  H   UNL     1     -24.915  -9.364  -4.379  1.00  0.00     0.164 HD
BRANCH  42  45
ATOM     45  CA  GLY A   6     -26.217 -11.006  -3.883  1.00  0.00     0.238 C 
BRANCH  45  46
ATOM     46  C   GLY A   6     -27.045 -11.538  -5.009  1.00  0.00     0.322 C 
ATOM     47  O   GLY A   6     -27.151 -10.890  -6.085  1.00  0.00    -0.250 OA
BRANCH  46  48
ATOM     48  OXT GLY A   6     -27.732 -12.737  -4.853  1.00  0.00    -0.480 OA
ATOM     49  H   UNL     1     -28.308 -13.108  -5.600  1.00  0.00     0.296 HD
ENDBRANCH  46  48
ENDBRANCH  45  46
ENDBRANCH  42  45
ENDBRANCH  40  41
BRANCH  40  50
ATOM     50  CB  ARG A   5     -22.658 -10.514  -6.912  1.00  0.00     0.037 C 
BRANCH  50  51
ATOM     51  CG  ARG A   5     -21.466  -9.719  -7.455  1.00  0.00     0.024 C 
BRANCH  51  52
ATOM     52  CD  ARG A   5     -21.602  -9.481  -8.961  1.00  0.00     0.116 C 
BRANCH  52  53
ATOM     53  NE  ARG A   5     -21.190  -8.119  -9.281  1.00  0.00    -0.357 N 
ATOM     54  CZ  ARG A   5     -20.072  -7.776 -10.100  1.00  0.00     0.185 C 
ATOM     55  NH2 ARG A   5     -19.200  -8.775 -10.616  1.00  0.00    -0.370 N 
ATOM     56  H   UNL     1     -21.778  -7.344  -8.896  1.00  0.00     0.163 HD
ATOM     57  H   UNL     1     -19.101  -9.715 -10.178  1.00  0.00     0.159 HD
ATOM     58  H   UNL     1     -18.493  -8.517 -11.341  1.00  0.00     0.159 HD
BRANCH  54  59
ATOM     59  NH1 ARG A   5     -19.842  -6.533 -10.384  1.00  0.00    -0.270 NA
ATOM     60  H   UNL     1     -20.452  -5.763 -10.030  1.00  0.00     0.191 HD
ENDBRANCH  54  59
ENDBRANCH  52  53
ENDBRANCH  51  52
ENDBRANCH  50  51
ENDBRANCH  40  50
ENDBRANCH  37  40
ENDBRANCH  35  36
BRANCH  35  61
ATOM     61  CB  LEU A   4     -19.652 -11.691  -1.536  1.00  0.00     0.038 C 
BRANCH  61  62
ATOM     62  CG  LEU A   4     -20.295 -12.956  -0.947  1.00  0.00    -0.015 C 
ATOM     63  CD1 LEU A   4     -19.611 -14.232  -1.463  1.00  0.00     0.007 C 
ATOM     64  CD2 LEU A   4     -20.194 -12.898   0.582  1.00  0.00     0.007 C 
ENDBRANCH  61  62
ENDBRANCH  35  61
ENDBRANCH   3  35
TORSDOF 26
