REMARK SMILES CC(C)C[C@H](NC(=O)[C@H](Cc1ccccc1)NC(=O)[C@@H](N)CO)C(=O)N[C@@H](CC(N)=O)C(=O)N[C@@H](CCCNC(=N)N)C(=O)N[C@@H](CO)C(=O)O
REMARK SMILES IDX 24 1 25 2 26 3 5 5 6 6 7 7 8 8 9 10 17 11 18 12 19 13 20 15
REMARK SMILES IDX 21 16 22 19 23 20 10 22 11 23 12 24 16 25 13 26 15 27 14 28
REMARK SMILES IDX 4 29 2 30 1 31 3 32 27 33 32 34 34 35 33 36 35 38 43 39
REMARK SMILES IDX 45 40 44 41 46 43 49 44 50 45 51 46 47 48 48 49 36 51 37 52
REMARK SMILES IDX 38 53 39 54 40 55 42 56 41 60 28 62 29 63 30 64 31 65
REMARK H PARENT 26 4 6 9 17 14 21 17 21 18 23 21 34 37 45 42 51 47 48 50 39 57
REMARK H PARENT 42 58 42 59 41 61 30 66 30 67
ROOT
ATOM      1  C   LEU A   3     -18.388 -10.553  -4.862  1.00  0.00     0.243 C 
ATOM      2  O   LEU A   3     -18.755 -11.408  -5.712  1.00  0.00    -0.273 OA
ATOM      3  N   ASN A   4     -18.840 -10.606  -3.513  1.00  0.00    -0.342 N 
ATOM      4  H   UNL     1     -18.555  -9.839  -2.860  1.00  0.00     0.164 HD
ENDROOT
BRANCH   1   5
ATOM      5  CA  LEU A   3     -17.456  -9.457  -5.240  1.00  0.00     0.171 C 
BRANCH   5   6
ATOM      6  N   LEU A   3     -16.217 -10.021  -5.729  1.00  0.00    -0.343 N 
ATOM      7  C   PHE A   2     -15.253 -10.549  -4.826  1.00  0.00     0.243 C 
ATOM      8  O   PHE A   2     -15.473 -10.578  -3.583  1.00  0.00    -0.273 OA
ATOM      9  H   UNL     1     -16.041 -10.070  -6.758  1.00  0.00     0.164 HD
BRANCH   7  10
ATOM     10  CA  PHE A   2     -13.975 -11.063  -5.385  1.00  0.00     0.175 C 
BRANCH  10  11
ATOM     11  N   PHE A   2     -12.856 -10.485  -4.661  1.00  0.00    -0.343 N 
ATOM     12  C   SER A   1     -12.601  -9.082  -4.707  1.00  0.00     0.239 C 
ATOM     13  O   SER A   1     -13.365  -8.313  -5.355  1.00  0.00    -0.273 OA
ATOM     14  H   UNL     1     -12.219 -11.101  -4.106  1.00  0.00     0.164 HD
BRANCH  12  15
ATOM     15  CA  SER A   1     -11.437  -8.537  -3.934  1.00  0.00     0.167 C 
BRANCH  15  16
ATOM     16  N   SER A   1     -10.843  -7.380  -4.606  1.00  0.00    -0.318 NA
ATOM     17  H   UNL     1     -11.570  -6.653  -4.797  1.00  0.00     0.119 HD
ATOM     18  H   UNL     1     -10.468  -7.690  -5.533  1.00  0.00     0.119 HD
ENDBRANCH  15  16
BRANCH  15  19
ATOM     19  CB  SER A   1     -11.837  -8.200  -2.486  1.00  0.00     0.184 C 
BRANCH  19  20
ATOM     20  OG  SER A   1     -12.063  -6.826  -2.322  1.00  0.00    -0.394 OA
ATOM     21  H   UNL     1     -12.977  -6.649  -2.668  1.00  0.00     0.210 HD
ENDBRANCH  19  20
ENDBRANCH  15  19
ENDBRANCH  12  15
ENDBRANCH  10  11
BRANCH  10  22
ATOM     22  CB  PHE A   2     -13.963 -12.598  -5.326  1.00  0.00     0.070 C 
BRANCH  22  23
ATOM     23  CG  PHE A   2     -12.882 -13.200  -6.184  1.00  0.00    -0.045 A 
ATOM     24  CD1 PHE A   2     -12.722 -12.808  -7.527  1.00  0.00     0.004 A 
ATOM     25  CD2 PHE A   2     -12.090 -14.245  -5.683  1.00  0.00     0.004 A 
ATOM     26  CE1 PHE A   2     -11.747 -13.400  -8.324  1.00  0.00     0.000 A 
ATOM     27  CE2 PHE A   2     -11.132 -14.854  -6.496  1.00  0.00     0.000 A 
ATOM     28  CZ  PHE A   2     -10.954 -14.424  -7.812  1.00  0.00     0.000 A 
ENDBRANCH  22  23
ENDBRANCH  10  22
ENDBRANCH   7  10
ENDBRANCH   5   6
BRANCH   5  29
ATOM     29  CB  LEU A   3     -18.102  -8.527  -6.274  1.00  0.00     0.038 C 
BRANCH  29  30
ATOM     30  CG  LEU A   3     -17.543  -7.092  -6.222  1.00  0.00    -0.015 C 
ATOM     31  CD1 LEU A   3     -18.188  -6.264  -7.337  1.00  0.00     0.007 C 
ATOM     32  CD2 LEU A   3     -17.812  -6.423  -4.860  1.00  0.00     0.007 C 
ENDBRANCH  29  30
ENDBRANCH   5  29
ENDBRANCH   1   5
BRANCH   3  33
ATOM     33  CA  ASN A   4     -19.822 -11.562  -3.039  1.00  0.00     0.180 C 
BRANCH  33  34
ATOM     34  C   ASN A   4     -21.171 -11.065  -3.457  1.00  0.00     0.243 C 
ATOM     35  N   ARG A   5     -21.505 -11.142  -4.838  1.00  0.00    -0.343 N 
ATOM     36  O   ASN A   4     -21.971 -10.547  -2.631  1.00  0.00    -0.273 OA
ATOM     37  H   UNL     1     -21.065 -11.906  -5.399  1.00  0.00     0.164 HD
BRANCH  35  38
ATOM     38  CA  ARG A   5     -22.680 -10.497  -5.383  1.00  0.00     0.171 C 
BRANCH  38  39
ATOM     39  C   ARG A   5     -23.901 -11.193  -4.881  1.00  0.00     0.243 C 
ATOM     40  N   SER A   6     -24.982 -10.401  -4.414  1.00  0.00    -0.339 N 
ATOM     41  O   ARG A   5     -23.971 -12.453  -4.870  1.00  0.00    -0.273 OA
ATOM     42  H   UNL     1     -24.906  -9.361  -4.484  1.00  0.00     0.164 HD
BRANCH  40  43
ATOM     43  CA  SER A   6     -26.197 -10.996  -3.878  1.00  0.00     0.218 C 
BRANCH  43  44
ATOM     44  C   SER A   6     -27.060 -11.519  -4.993  1.00  0.00     0.328 C 
ATOM     45  O   SER A   6     -27.144 -10.894  -6.085  1.00  0.00    -0.250 OA
BRANCH  44  46
ATOM     46  OXT SER A   6     -27.802 -12.680  -4.801  1.00  0.00    -0.480 OA
ATOM     47  H   UNL     1     -28.400 -13.041  -5.535  1.00  0.00     0.296 HD
ENDBRANCH  44  46
ENDBRANCH  43  44
BRANCH  43  48
ATOM     48  CB  SER A   6     -26.952  -9.970  -3.025  1.00  0.00     0.193 C 
BRANCH  48  49
ATOM     49  OG  SER A   6     -27.436  -8.911  -3.811  1.00  0.00    -0.394 OA
ATOM     50  H   UNL     1     -26.809  -8.150  -3.698  1.00  0.00     0.210 HD
ENDBRANCH  48  49
ENDBRANCH  43  48
ENDBRANCH  40  43
ENDBRANCH  38  39
BRANCH  38  51
ATOM     51  CB  ARG A   5     -22.650 -10.518  -6.913  1.00  0.00     0.037 C 
BRANCH  51  52
ATOM     52  CG  ARG A   5     -21.462  -9.719  -7.457  1.00  0.00     0.024 C 
BRANCH  52  53
ATOM     53  CD  ARG A   5     -21.602  -9.480  -8.961  1.00  0.00     0.116 C 
BRANCH  53  54
ATOM     54  NE  ARG A   5     -21.190  -8.118  -9.281  1.00  0.00    -0.357 N 
ATOM     55  CZ  ARG A   5     -20.075  -7.775 -10.104  1.00  0.00     0.185 C 
ATOM     56  NH2 ARG A   5     -19.200  -8.775 -10.616  1.00  0.00    -0.370 N 
ATOM     57  H   UNL     1     -21.774  -7.342  -8.892  1.00  0.00     0.163 HD
ATOM     58  H   UNL     1     -18.494  -8.518 -11.341  1.00  0.00     0.159 HD
ATOM     59  H   UNL     1     -19.097  -9.711 -10.171  1.00  0.00     0.159 HD
BRANCH  55  60
ATOM     60  NH1 ARG A   5     -19.847  -6.533 -10.392  1.00  0.00    -0.270 NA
ATOM     61  H   UNL     1     -20.457  -5.763 -10.038  1.00  0.00     0.191 HD
ENDBRANCH  55  60
ENDBRANCH  53  54
ENDBRANCH  52  53
ENDBRANCH  51  52
ENDBRANCH  38  51
ENDBRANCH  35  38
ENDBRANCH  33  34
BRANCH  33  62
ATOM     62  CB  ASN A   4     -19.671 -11.711  -1.515  1.00  0.00     0.134 C 
BRANCH  62  63
ATOM     63  CG  ASN A   4     -20.338 -12.945  -0.989  1.00  0.00     0.220 C 
ATOM     64  ND2 ASN A   4     -19.705 -14.218  -1.115  1.00  0.00    -0.370 N 
ATOM     65  OD1 ASN A   4     -21.480 -12.864  -0.465  1.00  0.00    -0.275 OA
ATOM     66  H   UNL     1     -20.177 -15.079  -0.761  1.00  0.00     0.159 HD
ATOM     67  H   UNL     1     -18.767 -14.304  -1.567  1.00  0.00     0.159 HD
ENDBRANCH  62  63
ENDBRANCH  33  62
ENDBRANCH   3  33
TORSDOF 28
