REMARK SMILES CC(C)C[C@H](NC(=O)[C@H](C)NC(=O)[C@H](Cc1c[nH]cn1)NC(=O)[C@@H](N)CO)C(=O)N[C@@H](CCCNC(=N)N)C(=O)N[C@@H](CC(N)=O)C(=O)O
REMARK SMILES IDX 7 1 8 2 6 3 9 5 10 6 11 7 12 8 13 9 14 11 21 12 22 13 23 14
REMARK SMILES IDX 24 16 25 17 26 20 27 21 15 23 16 24 20 25 17 26 19 27 18 28
REMARK SMILES IDX 5 30 28 31 30 32 29 33 31 35 39 36 41 37 40 38 42 40 47 41
REMARK SMILES IDX 48 42 49 43 43 45 44 46 45 47 46 48 32 51 33 52 34 53 35 54
REMARK SMILES IDX 36 55 38 56 37 60 4 62 2 63 1 64 3 65
REMARK H PARENT 6 4 11 10 21 15 25 18 25 19 27 22 18 29 30 34 41 39 49 44
REMARK H PARENT 45 49 45 50 35 57 38 58 38 59 37 61
ROOT
ATOM      1  C   ALA A   3     -18.390 -10.519  -4.876  1.00  0.00     0.242 C 
ATOM      2  O   ALA A   3     -18.750 -11.390  -5.715  1.00  0.00    -0.273 OA
ATOM      3  N   LEU A   4     -18.841 -10.566  -3.528  1.00  0.00    -0.343 N 
ATOM      4  H   UNL     1     -18.565  -9.788  -2.885  1.00  0.00     0.164 HD
ENDROOT
BRANCH   1   5
ATOM      5  CA  ALA A   3     -17.450  -9.429  -5.267  1.00  0.00     0.168 C 
ATOM      6  CB  ALA A   3     -18.066  -8.535  -6.335  1.00  0.00     0.041 C 
BRANCH   5   7
ATOM      7  N   ALA A   3     -16.210 -10.013  -5.739  1.00  0.00    -0.343 N 
ATOM      8  C   HIS A   2     -15.253 -10.556  -4.837  1.00  0.00     0.243 C 
ATOM      9  O   HIS A   2     -15.475 -10.577  -3.594  1.00  0.00    -0.273 OA
ATOM     10  H   UNL     1     -16.020 -10.050  -6.767  1.00  0.00     0.164 HD
BRANCH   8  11
ATOM     11  CA  HIS A   2     -13.971 -11.084  -5.394  1.00  0.00     0.177 C 
BRANCH  11  12
ATOM     12  N   HIS A   2     -12.852 -10.490  -4.677  1.00  0.00    -0.342 N 
ATOM     13  C   SER A   1     -12.603  -9.086  -4.716  1.00  0.00     0.239 C 
ATOM     14  O   SER A   1     -13.369  -8.318  -5.362  1.00  0.00    -0.273 OA
ATOM     15  H   UNL     1     -12.219 -11.097  -4.108  1.00  0.00     0.164 HD
BRANCH  13  16
ATOM     16  CA  SER A   1     -11.442  -8.538  -3.937  1.00  0.00     0.167 C 
BRANCH  16  17
ATOM     17  N   SER A   1     -10.848  -7.381  -4.609  1.00  0.00    -0.318 NA
ATOM     18  H   UNL     1     -10.478  -7.689  -5.539  1.00  0.00     0.119 HD
ATOM     19  H   UNL     1     -11.576  -6.652  -4.793  1.00  0.00     0.119 HD
ENDBRANCH  16  17
BRANCH  16  20
ATOM     20  CB  SER A   1     -11.848  -8.202  -2.488  1.00  0.00     0.184 C 
BRANCH  20  21
ATOM     21  OG  SER A   1     -12.054  -6.824  -2.318  1.00  0.00    -0.394 OA
ATOM     22  H   UNL     1     -11.170  -6.422  -2.109  1.00  0.00     0.210 HD
ENDBRANCH  20  21
ENDBRANCH  16  20
ENDBRANCH  13  16
ENDBRANCH  11  12
BRANCH  11  23
ATOM     23  CB  HIS A   2     -13.949 -12.615  -5.299  1.00  0.00     0.093 C 
BRANCH  23  24
ATOM     24  CG  HIS A   2     -12.869 -13.200  -6.157  1.00  0.00     0.061 A 
ATOM     25  ND1 HIS A   2     -11.627 -13.483  -5.717  1.00  0.00    -0.242 NA
ATOM     26  CD2 HIS A   2     -12.956 -13.450  -7.509  1.00  0.00     0.107 A 
ATOM     27  CE1 HIS A   2     -10.984 -13.920  -6.821  1.00  0.00     0.196 A 
ATOM     28  NE2 HIS A   2     -11.765 -13.909  -7.919  1.00  0.00    -0.351 N 
ATOM     29  H   UNL     1     -11.496 -14.190  -8.887  1.00  0.00     0.167 HD
ENDBRANCH  23  24
ENDBRANCH  11  23
ENDBRANCH   8  11
ENDBRANCH   5   7
ENDBRANCH   1   5
BRANCH   3  30
ATOM     30  CA  LEU A   4     -19.811 -11.536  -3.056  1.00  0.00     0.171 C 
BRANCH  30  31
ATOM     31  C   LEU A   4     -21.167 -11.058  -3.464  1.00  0.00     0.243 C 
ATOM     32  N   ARG A   5     -21.505 -11.141  -4.842  1.00  0.00    -0.343 N 
ATOM     33  O   LEU A   4     -21.970 -10.549  -2.634  1.00  0.00    -0.273 OA
ATOM     34  H   UNL     1     -21.063 -11.903  -5.404  1.00  0.00     0.164 HD
BRANCH  32  35
ATOM     35  CA  ARG A   5     -22.679 -10.496  -5.386  1.00  0.00     0.171 C 
BRANCH  35  36
ATOM     36  C   ARG A   5     -23.897 -11.194  -4.885  1.00  0.00     0.243 C 
ATOM     37  N   ASN A   6     -24.982 -10.402  -4.433  1.00  0.00    -0.341 N 
ATOM     38  O   ARG A   5     -23.966 -12.454  -4.867  1.00  0.00    -0.273 OA
ATOM     39  H   UNL     1     -24.931  -9.364  -4.552  1.00  0.00     0.164 HD
BRANCH  37  40
ATOM     40  CA  ASN A   6     -26.189 -10.994  -3.883  1.00  0.00     0.201 C 
BRANCH  40  41
ATOM     41  C   ASN A   6     -27.053 -11.522  -4.997  1.00  0.00     0.326 C 
ATOM     42  O   ASN A   6     -27.151 -10.892  -6.084  1.00  0.00    -0.250 OA
BRANCH  41  43
ATOM     43  OXT ASN A   6     -27.773 -12.698  -4.811  1.00  0.00    -0.480 OA
ATOM     44  H   UNL     1     -28.370 -13.063  -5.543  1.00  0.00     0.296 HD
ENDBRANCH  41  43
ENDBRANCH  40  41
BRANCH  40  45
ATOM     45  CB  ASN A   6     -26.930  -9.934  -3.062  1.00  0.00     0.136 C 
BRANCH  45  46
ATOM     46  CG  ASN A   6     -28.019 -10.549  -2.252  1.00  0.00     0.220 C 
ATOM     47  ND2 ASN A   6     -27.701 -11.241  -1.053  1.00  0.00    -0.370 N 
ATOM     48  OD1 ASN A   6     -29.213 -10.484  -2.642  1.00  0.00    -0.275 OA
ATOM     49  H   UNL     1     -26.713 -11.314  -0.724  1.00  0.00     0.159 HD
ATOM     50  H   UNL     1     -28.456 -11.688  -0.487  1.00  0.00     0.159 HD
ENDBRANCH  45  46
ENDBRANCH  40  45
ENDBRANCH  37  40
ENDBRANCH  35  36
BRANCH  35  51
ATOM     51  CB  ARG A   5     -22.650 -10.514  -6.914  1.00  0.00     0.037 C 
BRANCH  51  52
ATOM     52  CG  ARG A   5     -21.455  -9.724  -7.458  1.00  0.00     0.024 C 
BRANCH  52  53
ATOM     53  CD  ARG A   5     -21.601  -9.480  -8.962  1.00  0.00     0.116 C 
BRANCH  53  54
ATOM     54  NE  ARG A   5     -21.189  -8.118  -9.280  1.00  0.00    -0.357 N 
ATOM     55  CZ  ARG A   5     -20.072  -7.775 -10.101  1.00  0.00     0.185 C 
ATOM     56  NH2 ARG A   5     -19.200  -8.775 -10.617  1.00  0.00    -0.370 N 
ATOM     57  H   UNL     1     -21.775  -7.343  -8.891  1.00  0.00     0.163 HD
ATOM     58  H   UNL     1     -18.495  -8.517 -11.343  1.00  0.00     0.159 HD
ATOM     59  H   UNL     1     -19.100  -9.714 -10.177  1.00  0.00     0.159 HD
BRANCH  55  60
ATOM     60  NH1 ARG A   5     -19.842  -6.533 -10.385  1.00  0.00    -0.270 NA
ATOM     61  H   UNL     1     -20.452  -5.762 -10.031  1.00  0.00     0.191 HD
ENDBRANCH  55  60
ENDBRANCH  53  54
ENDBRANCH  52  53
ENDBRANCH  51  52
ENDBRANCH  35  51
ENDBRANCH  32  35
ENDBRANCH  30  31
BRANCH  30  62
ATOM     62  CB  LEU A   4     -19.648 -11.688  -1.536  1.00  0.00     0.038 C 
BRANCH  62  63
ATOM     63  CG  LEU A   4     -20.294 -12.953  -0.948  1.00  0.00    -0.015 C 
ATOM     64  CD1 LEU A   4     -19.611 -14.230  -1.463  1.00  0.00     0.007 C 
ATOM     65  CD2 LEU A   4     -20.194 -12.896   0.581  1.00  0.00     0.007 C 
ENDBRANCH  62  63
ENDBRANCH  30  62
ENDBRANCH   3  30
TORSDOF 26
