REMARK SMILES CC[C@H](C)[C@H](NC(=O)[C@@H](N)CO)C(=O)N[C@@H](CCCCN)C(=O)N[C@@H](CC(C)C)C(=O)N[C@@H](CCCNC(=N)N)C(=O)N[C@@H](CC(N)=O)C(=O)O
REMARK SMILES IDX 22 1 23 2 24 3 16 5 15 6 13 7 14 8 5 10 6 11 7 12 8 13 9 15
REMARK SMILES IDX 10 16 11 19 12 20 3 22 4 23 2 24 1 25 17 26 18 27 19 28
REMARK SMILES IDX 20 29 21 30 25 33 30 34 32 35 31 36 33 38 41 39 43 40 42 41
REMARK SMILES IDX 44 43 49 44 50 45 51 46 45 48 46 49 47 50 48 51 34 54 35 55
REMARK SMILES IDX 36 56 37 57 38 58 40 59 39 63 26 65 27 66 28 67 29 68
REMARK H PARENT 24 4 15 9 6 14 10 17 10 18 12 21 21 31 21 32 32 37 43 42 51 47
REMARK H PARENT 47 52 47 53 37 60 40 61 40 62 39 64
ROOT
ATOM      1  C   LYS A   3     -18.381 -10.534  -4.869  1.00  0.00     0.243 C 
ATOM      2  O   LYS A   3     -18.744 -11.398  -5.714  1.00  0.00    -0.273 OA
ATOM      3  N   LEU A   4     -18.843 -10.575  -3.525  1.00  0.00    -0.343 N 
ATOM      4  H   UNL     1     -18.582  -9.790  -2.884  1.00  0.00     0.164 HD
ENDROOT
BRANCH   1   5
ATOM      5  CA  LYS A   3     -17.451  -9.436  -5.252  1.00  0.00     0.171 C 
BRANCH   5   6
ATOM      6  N   LYS A   3     -16.206 -10.005  -5.735  1.00  0.00    -0.343 N 
ATOM      7  C   ILE A   2     -15.254 -10.547  -4.827  1.00  0.00     0.243 C 
ATOM      8  O   ILE A   2     -15.482 -10.543  -3.585  1.00  0.00    -0.273 OA
ATOM      9  H   UNL     1     -16.011 -10.034  -6.762  1.00  0.00     0.164 HD
BRANCH   7  10
ATOM     10  CA  ILE A   2     -13.970 -11.093  -5.367  1.00  0.00     0.174 C 
BRANCH  10  11
ATOM     11  N   ILE A   2     -12.845 -10.488  -4.668  1.00  0.00    -0.343 N 
ATOM     12  C   SER A   1     -12.599  -9.084  -4.707  1.00  0.00     0.239 C 
ATOM     13  O   SER A   1     -13.363  -8.313  -5.353  1.00  0.00    -0.273 OA
ATOM     14  H   UNL     1     -12.172 -11.088  -4.142  1.00  0.00     0.164 HD
BRANCH  12  15
ATOM     15  CA  SER A   1     -11.433  -8.542  -3.934  1.00  0.00     0.167 C 
BRANCH  15  16
ATOM     16  N   SER A   1     -10.870  -7.375  -4.610  1.00  0.00    -0.318 NA
ATOM     17  H   UNL     1     -10.550  -7.668  -5.563  1.00  0.00     0.119 HD
ATOM     18  H   UNL     1     -10.006  -7.084  -4.096  1.00  0.00     0.119 HD
ENDBRANCH  15  16
BRANCH  15  19
ATOM     19  CB  SER A   1     -11.842  -8.205  -2.487  1.00  0.00     0.184 C 
BRANCH  19  20
ATOM     20  OG  SER A   1     -12.062  -6.828  -2.338  1.00  0.00    -0.394 OA
ATOM     21  H   UNL     1     -12.322  -6.690  -1.391  1.00  0.00     0.210 HD
ENDBRANCH  19  20
ENDBRANCH  15  19
ENDBRANCH  12  15
ENDBRANCH  10  11
BRANCH  10  22
ATOM     22  CB  ILE A   2     -13.952 -12.643  -5.294  1.00  0.00     0.018 C 
ATOM     23  CG1 ILE A   2     -12.859 -13.209  -6.210  1.00  0.00     0.010 C 
BRANCH  22  24
ATOM     24  CG2 ILE A   2     -13.799 -13.216  -3.855  1.00  0.00     0.002 C 
ATOM     25  CD1 ILE A   2     -14.409 -14.613  -3.719  1.00  0.00     0.004 C 
ENDBRANCH  22  24
ENDBRANCH  10  22
ENDBRANCH   7  10
ENDBRANCH   5   6
BRANCH   5  26
ATOM     26  CB  LYS A   3     -18.101  -8.528  -6.299  1.00  0.00     0.035 C 
BRANCH  26  27
ATOM     27  CG  LYS A   3     -17.520  -7.113  -6.262  1.00  0.00     0.004 C 
BRANCH  27  28
ATOM     28  CD  LYS A   3     -18.194  -6.243  -7.323  1.00  0.00     0.015 C 
BRANCH  28  29
ATOM     29  CE  LYS A   3     -17.677  -4.804  -7.270  1.00  0.00     0.077 C 
BRANCH  29  30
ATOM     30  NZ  LYS A   3     -18.301  -4.008  -8.322  1.00  0.00    -0.330 NA
ATOM     31  H   UNL     1     -17.872  -3.054  -8.296  1.00  0.00     0.118 HD
ATOM     32  H   UNL     1     -19.312  -3.884  -8.083  1.00  0.00     0.118 HD
ENDBRANCH  29  30
ENDBRANCH  28  29
ENDBRANCH  27  28
ENDBRANCH  26  27
ENDBRANCH   5  26
ENDBRANCH   1   5
BRANCH   3  33
ATOM     33  CA  LEU A   4     -19.815 -11.542  -3.055  1.00  0.00     0.171 C 
BRANCH  33  34
ATOM     34  C   LEU A   4     -21.169 -11.060  -3.464  1.00  0.00     0.243 C 
ATOM     35  N   ARG A   5     -21.504 -11.141  -4.842  1.00  0.00    -0.343 N 
ATOM     36  O   LEU A   4     -21.971 -10.549  -2.634  1.00  0.00    -0.273 OA
ATOM     37  H   UNL     1     -21.059 -11.899  -5.406  1.00  0.00     0.164 HD
BRANCH  35  38
ATOM     38  CA  ARG A   5     -22.679 -10.497  -5.387  1.00  0.00     0.171 C 
BRANCH  38  39
ATOM     39  C   ARG A   5     -23.897 -11.195  -4.885  1.00  0.00     0.243 C 
ATOM     40  N   ASN A   6     -24.982 -10.402  -4.433  1.00  0.00    -0.341 N 
ATOM     41  O   ARG A   5     -23.966 -12.455  -4.867  1.00  0.00    -0.273 OA
ATOM     42  H   UNL     1     -24.931  -9.364  -4.552  1.00  0.00     0.164 HD
BRANCH  40  43
ATOM     43  CA  ASN A   6     -26.189 -10.994  -3.883  1.00  0.00     0.201 C 
BRANCH  43  44
ATOM     44  C   ASN A   6     -27.053 -11.522  -4.997  1.00  0.00     0.326 C 
ATOM     45  O   ASN A   6     -27.151 -10.892  -6.084  1.00  0.00    -0.250 OA
BRANCH  44  46
ATOM     46  OXT ASN A   6     -27.773 -12.698  -4.811  1.00  0.00    -0.480 OA
ATOM     47  H   UNL     1     -28.370 -13.063  -5.543  1.00  0.00     0.296 HD
ENDBRANCH  44  46
ENDBRANCH  43  44
BRANCH  43  48
ATOM     48  CB  ASN A   6     -26.930  -9.934  -3.062  1.00  0.00     0.136 C 
BRANCH  48  49
ATOM     49  CG  ASN A   6     -28.019 -10.549  -2.252  1.00  0.00     0.220 C 
ATOM     50  ND2 ASN A   6     -27.701 -11.241  -1.053  1.00  0.00    -0.370 N 
ATOM     51  OD1 ASN A   6     -29.213 -10.484  -2.643  1.00  0.00    -0.275 OA
ATOM     52  H   UNL     1     -26.713 -11.314  -0.724  1.00  0.00     0.159 HD
ATOM     53  H   UNL     1     -28.456 -11.688  -0.487  1.00  0.00     0.159 HD
ENDBRANCH  48  49
ENDBRANCH  43  48
ENDBRANCH  40  43
ENDBRANCH  38  39
BRANCH  38  54
ATOM     54  CB  ARG A   5     -22.649 -10.518  -6.916  1.00  0.00     0.037 C 
BRANCH  54  55
ATOM     55  CG  ARG A   5     -21.461  -9.719  -7.458  1.00  0.00     0.024 C 
BRANCH  55  56
ATOM     56  CD  ARG A   5     -21.601  -9.479  -8.963  1.00  0.00     0.116 C 
BRANCH  56  57
ATOM     57  NE  ARG A   5     -21.189  -8.117  -9.281  1.00  0.00    -0.357 N 
ATOM     58  CZ  ARG A   5     -20.074  -7.774 -10.104  1.00  0.00     0.185 C 
ATOM     59  NH2 ARG A   5     -19.200  -8.774 -10.616  1.00  0.00    -0.370 N 
ATOM     60  H   UNL     1     -21.774  -7.341  -8.892  1.00  0.00     0.163 HD
ATOM     61  H   UNL     1     -18.494  -8.517 -11.342  1.00  0.00     0.159 HD
ATOM     62  H   UNL     1     -19.096  -9.710 -10.171  1.00  0.00     0.159 HD
BRANCH  58  63
ATOM     63  NH1 ARG A   5     -19.847  -6.532 -10.392  1.00  0.00    -0.270 NA
ATOM     64  H   UNL     1     -20.456  -5.761 -10.038  1.00  0.00     0.191 HD
ENDBRANCH  58  63
ENDBRANCH  56  57
ENDBRANCH  55  56
ENDBRANCH  54  55
ENDBRANCH  38  54
ENDBRANCH  35  38
ENDBRANCH  33  34
BRANCH  33  65
ATOM     65  CB  LEU A   4     -19.651 -11.691  -1.535  1.00  0.00     0.038 C 
BRANCH  65  66
ATOM     66  CG  LEU A   4     -20.295 -12.956  -0.946  1.00  0.00    -0.015 C 
ATOM     67  CD1 LEU A   4     -19.610 -14.232  -1.462  1.00  0.00     0.007 C 
ATOM     68  CD2 LEU A   4     -20.194 -12.898   0.582  1.00  0.00     0.007 C 
ENDBRANCH  65  66
ENDBRANCH  33  65
ENDBRANCH   3  33
TORSDOF 31
