REMARK SMILES CC(C)C[C@H](NC(=O)[C@H](CCCNC(=N)N)NC(=O)[C@@H](N)CO)C(=O)NCC(=O)N[C@@H](CCCNC(=N)N)C(=O)N[C@@H](CC(N)=O)C(=O)O
REMARK SMILES IDX 24 1 25 2 26 3 5 5 6 6 7 7 8 8 9 10 17 11 18 12 19 13 20 15
REMARK SMILES IDX 21 16 22 19 23 20 10 22 11 23 12 24 13 25 14 26 16 27 15 31
REMARK SMILES IDX 4 33 2 34 1 35 3 36 27 37 28 38 30 39 29 40 31 42 39 43
REMARK SMILES IDX 41 44 40 45 42 47 47 48 48 49 49 50 43 52 44 53 45 54 46 55
REMARK SMILES IDX 32 58 33 59 34 60 35 61 36 62 38 63 37 67
REMARK H PARENT 26 4 6 9 17 14 21 17 21 18 23 21 13 28 16 29 16 30 15 32 30 41
REMARK H PARENT 41 46 49 51 45 56 45 57 35 64 38 65 38 66 37 68
ROOT
ATOM      1  C   LEU A   3     -18.387 -10.561  -4.853  1.00  0.00     0.243 C 
ATOM      2  O   LEU A   3     -18.764 -11.404  -5.712  1.00  0.00    -0.273 OA
ATOM      3  N   GLY A   4     -18.818 -10.645  -3.494  1.00  0.00    -0.345 N 
ATOM      4  H   UNL     1     -18.407 -10.001  -2.782  1.00  0.00     0.164 HD
ENDROOT
BRANCH   1   5
ATOM      5  CA  LEU A   3     -17.457  -9.461  -5.233  1.00  0.00     0.171 C 
BRANCH   5   6
ATOM      6  N   LEU A   3     -16.214 -10.020  -5.729  1.00  0.00    -0.343 N 
ATOM      7  C   ARG A   2     -15.249 -10.557  -4.834  1.00  0.00     0.243 C 
ATOM      8  O   ARG A   2     -15.465 -10.582  -3.590  1.00  0.00    -0.273 OA
ATOM      9  H   UNL     1     -16.031 -10.048  -6.758  1.00  0.00     0.164 HD
BRANCH   7  10
ATOM     10  CA  ARG A   2     -13.970 -11.082  -5.394  1.00  0.00     0.171 C 
BRANCH  10  11
ATOM     11  N   ARG A   2     -12.852 -10.487  -4.677  1.00  0.00    -0.343 N 
ATOM     12  C   SER A   1     -12.603  -9.084  -4.717  1.00  0.00     0.239 C 
ATOM     13  O   SER A   1     -13.369  -8.316  -5.362  1.00  0.00    -0.273 OA
ATOM     14  H   UNL     1     -12.225 -11.093  -4.099  1.00  0.00     0.164 HD
BRANCH  12  15
ATOM     15  CA  SER A   1     -11.442  -8.537  -3.937  1.00  0.00     0.167 C 
BRANCH  15  16
ATOM     16  N   SER A   1     -10.848  -7.380  -4.609  1.00  0.00    -0.318 NA
ATOM     17  H   UNL     1     -11.576  -6.651  -4.793  1.00  0.00     0.119 HD
ATOM     18  H   UNL     1     -10.478  -7.687  -5.539  1.00  0.00     0.119 HD
ENDBRANCH  15  16
BRANCH  15  19
ATOM     19  CB  SER A   1     -11.848  -8.202  -2.488  1.00  0.00     0.184 C 
BRANCH  19  20
ATOM     20  OG  SER A   1     -12.054  -6.823  -2.318  1.00  0.00    -0.394 OA
ATOM     21  H   UNL     1     -11.171  -6.421  -2.108  1.00  0.00     0.210 HD
ENDBRANCH  19  20
ENDBRANCH  15  19
ENDBRANCH  12  15
ENDBRANCH  10  11
BRANCH  10  22
ATOM     22  CB  ARG A   2     -13.951 -12.613  -5.295  1.00  0.00     0.037 C 
BRANCH  22  23
ATOM     23  CG  ARG A   2     -12.855 -13.222  -6.175  1.00  0.00     0.024 C 
BRANCH  23  24
ATOM     24  CD  ARG A   2     -12.836 -14.749  -6.053  1.00  0.00     0.116 C 
BRANCH  24  25
ATOM     25  NE  ARG A   2     -11.769 -15.315  -6.877  1.00  0.00    -0.357 N 
ATOM     26  CZ  ARG A   2     -11.859 -15.435  -8.305  1.00  0.00     0.185 C 
ATOM     27  NH2 ARG A   2     -10.758 -15.975  -9.039  1.00  0.00    -0.370 N 
ATOM     28  H   UNL     1     -10.922 -15.695  -6.396  1.00  0.00     0.163 HD
ATOM     29  H   UNL     1     -10.803 -16.075 -10.078  1.00  0.00     0.159 HD
ATOM     30  H   UNL     1      -9.889 -16.275  -8.545  1.00  0.00     0.159 HD
BRANCH  26  31
ATOM     31  NH1 ARG A   2     -12.935 -15.065  -8.926  1.00  0.00    -0.270 NA
ATOM     32  H   UNL     1     -13.025 -15.146  -9.964  1.00  0.00     0.191 HD
ENDBRANCH  26  31
ENDBRANCH  24  25
ENDBRANCH  23  24
ENDBRANCH  22  23
ENDBRANCH  10  22
ENDBRANCH   7  10
ENDBRANCH   5   6
BRANCH   5  33
ATOM     33  CB  LEU A   3     -18.105  -8.530  -6.266  1.00  0.00     0.038 C 
BRANCH  33  34
ATOM     34  CG  LEU A   3     -17.544  -7.095  -6.219  1.00  0.00    -0.015 C 
ATOM     35  CD1 LEU A   3     -18.189  -6.268  -7.335  1.00  0.00     0.007 C 
ATOM     36  CD2 LEU A   3     -17.811  -6.423  -4.859  1.00  0.00     0.007 C 
ENDBRANCH  33  34
ENDBRANCH   5  33
ENDBRANCH   1   5
BRANCH   3  37
ATOM     37  CA  GLY A   4     -19.840 -11.569  -3.040  1.00  0.00     0.216 C 
BRANCH  37  38
ATOM     38  C   GLY A   4     -21.164 -11.056  -3.467  1.00  0.00     0.240 C 
ATOM     39  N   ARG A   5     -21.502 -11.138  -4.845  1.00  0.00    -0.343 N 
ATOM     40  O   GLY A   4     -21.960 -10.547  -2.632  1.00  0.00    -0.273 OA
ATOM     41  H   UNL     1     -21.070 -11.908  -5.402  1.00  0.00     0.164 HD
BRANCH  39  42
ATOM     42  CA  ARG A   5     -22.679 -10.496  -5.388  1.00  0.00     0.171 C 
BRANCH  42  43
ATOM     43  C   ARG A   5     -23.896 -11.194  -4.885  1.00  0.00     0.243 C 
ATOM     44  N   ASN A   6     -24.982 -10.402  -4.433  1.00  0.00    -0.341 N 
ATOM     45  O   ARG A   5     -23.965 -12.454  -4.868  1.00  0.00    -0.273 OA
ATOM     46  H   UNL     1     -24.931  -9.364  -4.553  1.00  0.00     0.164 HD
BRANCH  44  47
ATOM     47  CA  ASN A   6     -26.189 -10.994  -3.883  1.00  0.00     0.201 C 
BRANCH  47  48
ATOM     48  C   ASN A   6     -27.052 -11.522  -4.997  1.00  0.00     0.326 C 
ATOM     49  O   ASN A   6     -27.151 -10.892  -6.084  1.00  0.00    -0.250 OA
BRANCH  48  50
ATOM     50  OXT ASN A   6     -27.773 -12.698  -4.811  1.00  0.00    -0.480 OA
ATOM     51  H   UNL     1     -28.370 -13.063  -5.543  1.00  0.00     0.296 HD
ENDBRANCH  48  50
ENDBRANCH  47  48
BRANCH  47  52
ATOM     52  CB  ASN A   6     -26.930  -9.934  -3.062  1.00  0.00     0.136 C 
BRANCH  52  53
ATOM     53  CG  ASN A   6     -28.019 -10.549  -2.252  1.00  0.00     0.220 C 
ATOM     54  ND2 ASN A   6     -27.701 -11.241  -1.053  1.00  0.00    -0.370 N 
ATOM     55  OD1 ASN A   6     -29.213 -10.484  -2.643  1.00  0.00    -0.275 OA
ATOM     56  H   UNL     1     -28.456 -11.688  -0.487  1.00  0.00     0.159 HD
ATOM     57  H   UNL     1     -26.713 -11.314  -0.724  1.00  0.00     0.159 HD
ENDBRANCH  52  53
ENDBRANCH  47  52
ENDBRANCH  44  47
ENDBRANCH  42  43
BRANCH  42  58
ATOM     58  CB  ARG A   5     -22.650 -10.517  -6.916  1.00  0.00     0.037 C 
BRANCH  58  59
ATOM     59  CG  ARG A   5     -21.461  -9.718  -7.459  1.00  0.00     0.024 C 
BRANCH  59  60
ATOM     60  CD  ARG A   5     -21.602  -9.480  -8.964  1.00  0.00     0.116 C 
BRANCH  60  61
ATOM     61  NE  ARG A   5     -21.190  -8.117  -9.282  1.00  0.00    -0.357 N 
ATOM     62  CZ  ARG A   5     -20.075  -7.775 -10.105  1.00  0.00     0.185 C 
ATOM     63  NH2 ARG A   5     -19.200  -8.774 -10.616  1.00  0.00    -0.370 N 
ATOM     64  H   UNL     1     -21.775  -7.342  -8.894  1.00  0.00     0.163 HD
ATOM     65  H   UNL     1     -19.097  -9.710 -10.171  1.00  0.00     0.159 HD
ATOM     66  H   UNL     1     -18.493  -8.517 -11.341  1.00  0.00     0.159 HD
BRANCH  62  67
ATOM     67  NH1 ARG A   5     -19.847  -6.533 -10.392  1.00  0.00    -0.270 NA
ATOM     68  H   UNL     1     -20.457  -5.762 -10.039  1.00  0.00     0.191 HD
ENDBRANCH  62  67
ENDBRANCH  60  61
ENDBRANCH  59  60
ENDBRANCH  58  59
ENDBRANCH  42  58
ENDBRANCH  39  42
ENDBRANCH  37  38
ENDBRANCH   3  37
TORSDOF 29
