REMARK SMILES N=C(N)NCCC[C@H](NC(=O)[C@H](CC(N)=O)NC(=O)[C@@H]1CCCN1C(=O)[C@H](Cc1ccccc1)NC(=O)[C@@H](N)CO)C(=O)N[C@@H](CC(N)=O)C(=O)O
REMARK SMILES IDX 18 1 19 2 17 3 20 5 24 6 23 7 21 8 22 9 25 10 26 11 27 12
REMARK SMILES IDX 35 13 36 14 37 15 38 17 39 18 40 21 41 22 28 24 29 25 30 26
REMARK SMILES IDX 34 27 31 28 33 29 32 30 12 31 10 32 9 33 11 34 8 36 42 37
REMARK SMILES IDX 44 38 43 39 45 41 50 42 51 43 52 44 46 46 47 47 48 48 49 49
REMARK SMILES IDX 7 52 6 53 5 54 4 55 2 56 3 57 1 61 13 63 14 64 15 65 16 66
REMARK H PARENT 17 4 35 16 39 19 39 20 41 23 9 35 44 40 52 45 48 50 48 51 4 58
REMARK H PARENT 3 59 3 60 1 62 15 67 15 68
ROOT
ATOM      1  C   PRO A   3     -18.367 -10.543  -4.883  1.00  0.00     0.243 C 
ATOM      2  O   PRO A   3     -18.769 -11.392  -5.723  1.00  0.00    -0.273 OA
ATOM      3  N   ASN A   4     -18.829 -10.573  -3.533  1.00  0.00    -0.342 N 
ATOM      4  H   UNL     1     -18.526  -9.805  -2.891  1.00  0.00     0.164 HD
ENDROOT
BRANCH   1   5
ATOM      5  CA  PRO A   3     -17.373  -9.491  -5.287  1.00  0.00     0.174 C 
ATOM      6  N   PRO A   3     -16.300 -10.046  -6.109  1.00  0.00    -0.329 N 
ATOM      7  CD  PRO A   3     -16.132  -9.319  -7.356  1.00  0.00     0.120 C 
ATOM      8  CB  PRO A   3     -18.012  -8.392  -6.138  1.00  0.00     0.037 C 
ATOM      9  CG  PRO A   3     -16.988  -8.069  -7.221  1.00  0.00     0.024 C 
BRANCH   6  10
ATOM     10  C   PHE A   2     -15.660 -11.318  -5.897  1.00  0.00     0.246 C 
ATOM     11  O   PHE A   2     -15.763 -12.201  -6.791  1.00  0.00    -0.272 OA
BRANCH  10  12
ATOM     12  CA  PHE A   2     -14.768 -11.601  -4.706  1.00  0.00     0.176 C 
BRANCH  12  13
ATOM     13  N   PHE A   2     -13.496 -10.876  -4.820  1.00  0.00    -0.343 N 
ATOM     14  C   SER A   1     -13.349  -9.446  -4.779  1.00  0.00     0.239 C 
ATOM     15  O   SER A   1     -14.325  -8.709  -4.474  1.00  0.00    -0.273 OA
ATOM     16  H   UNL     1     -12.636 -11.449  -4.980  1.00  0.00     0.164 HD
BRANCH  14  17
ATOM     17  CA  SER A   1     -11.999  -8.821  -5.041  1.00  0.00     0.167 C 
BRANCH  17  18
ATOM     18  N   SER A   1     -12.122  -7.630  -5.887  1.00  0.00    -0.318 NA
ATOM     19  H   UNL     1     -12.589  -7.902  -6.783  1.00  0.00     0.119 HD
ATOM     20  H   UNL     1     -12.732  -6.922  -5.415  1.00  0.00     0.119 HD
ENDBRANCH  17  18
BRANCH  17  21
ATOM     21  CB  SER A   1     -11.303  -8.458  -3.721  1.00  0.00     0.184 C 
BRANCH  21  22
ATOM     22  OG  SER A   1     -11.062  -9.606  -2.953  1.00  0.00    -0.394 OA
ATOM     23  H   UNL     1     -10.299 -10.079  -3.379  1.00  0.00     0.210 HD
ENDBRANCH  21  22
ENDBRANCH  17  21
ENDBRANCH  14  17
ENDBRANCH  12  13
BRANCH  12  24
ATOM     24  CB  PHE A   2     -15.446 -11.392  -3.337  1.00  0.00     0.070 C 
BRANCH  24  25
ATOM     25  CG  PHE A   2     -14.582 -11.909  -2.214  1.00  0.00    -0.045 A 
ATOM     26  CD1 PHE A   2     -14.608 -13.271  -1.870  1.00  0.00     0.004 A 
ATOM     27  CD2 PHE A   2     -13.712 -11.043  -1.530  1.00  0.00     0.004 A 
ATOM     28  CE1 PHE A   2     -13.785 -13.755  -0.848  1.00  0.00     0.000 A 
ATOM     29  CE2 PHE A   2     -12.889 -11.531  -0.511  1.00  0.00     0.000 A 
ATOM     30  CZ  PHE A   2     -12.926 -12.886  -0.170  1.00  0.00     0.000 A 
ENDBRANCH  24  25
ENDBRANCH  12  24
ENDBRANCH  10  12
ENDBRANCH   6  10
ENDBRANCH   1   5
BRANCH   3  31
ATOM     31  CA  ASN A   4     -19.806 -11.539  -3.049  1.00  0.00     0.180 C 
BRANCH  31  32
ATOM     32  C   ASN A   4     -21.163 -11.059  -3.462  1.00  0.00     0.243 C 
ATOM     33  N   ARG A   5     -21.502 -11.143  -4.841  1.00  0.00    -0.343 N 
ATOM     34  O   ASN A   4     -21.966 -10.548  -2.633  1.00  0.00    -0.273 OA
ATOM     35  H   UNL     1     -21.071 -11.914  -5.398  1.00  0.00     0.164 HD
BRANCH  33  36
ATOM     36  CA  ARG A   5     -22.677 -10.497  -5.385  1.00  0.00     0.171 C 
BRANCH  36  37
ATOM     37  C   ARG A   5     -23.896 -11.194  -4.883  1.00  0.00     0.243 C 
ATOM     38  N   ASN A   6     -24.982 -10.402  -4.433  1.00  0.00    -0.341 N 
ATOM     39  O   ARG A   5     -23.965 -12.455  -4.866  1.00  0.00    -0.273 OA
ATOM     40  H   UNL     1     -24.931  -9.364  -4.552  1.00  0.00     0.164 HD
BRANCH  38  41
ATOM     41  CA  ASN A   6     -26.189 -10.994  -3.883  1.00  0.00     0.201 C 
BRANCH  41  42
ATOM     42  C   ASN A   6     -27.053 -11.522  -4.997  1.00  0.00     0.326 C 
ATOM     43  O   ASN A   6     -27.151 -10.891  -6.084  1.00  0.00    -0.250 OA
BRANCH  42  44
ATOM     44  OXT ASN A   6     -27.773 -12.697  -4.811  1.00  0.00    -0.480 OA
ATOM     45  H   UNL     1     -28.371 -13.061  -5.543  1.00  0.00     0.296 HD
ENDBRANCH  42  44
ENDBRANCH  41  42
BRANCH  41  46
ATOM     46  CB  ASN A   6     -26.930  -9.934  -3.062  1.00  0.00     0.136 C 
BRANCH  46  47
ATOM     47  CG  ASN A   6     -28.020 -10.549  -2.252  1.00  0.00     0.220 C 
ATOM     48  ND2 ASN A   6     -27.702 -11.242  -1.053  1.00  0.00    -0.370 N 
ATOM     49  OD1 ASN A   6     -29.213 -10.484  -2.643  1.00  0.00    -0.275 OA
ATOM     50  H   UNL     1     -28.457 -11.688  -0.487  1.00  0.00     0.159 HD
ATOM     51  H   UNL     1     -26.713 -11.314  -0.724  1.00  0.00     0.159 HD
ENDBRANCH  46  47
ENDBRANCH  41  46
ENDBRANCH  38  41
ENDBRANCH  36  37
BRANCH  36  52
ATOM     52  CB  ARG A   5     -22.654 -10.515  -6.914  1.00  0.00     0.037 C 
BRANCH  52  53
ATOM     53  CG  ARG A   5     -21.457  -9.733  -7.464  1.00  0.00     0.024 C 
BRANCH  53  54
ATOM     54  CD  ARG A   5     -21.607  -9.478  -8.966  1.00  0.00     0.116 C 
BRANCH  54  55
ATOM     55  NE  ARG A   5     -21.185  -8.116  -9.279  1.00  0.00    -0.357 N 
ATOM     56  CZ  ARG A   5     -20.071  -7.777 -10.101  1.00  0.00     0.185 C 
ATOM     57  NH2 ARG A   5     -19.199  -8.782 -10.614  1.00  0.00    -0.370 N 
ATOM     58  H   UNL     1     -21.760  -7.334  -8.887  1.00  0.00     0.163 HD
ATOM     59  H   UNL     1     -18.499  -8.539 -11.350  1.00  0.00     0.159 HD
ATOM     60  H   UNL     1     -19.096  -9.714 -10.160  1.00  0.00     0.159 HD
BRANCH  56  61
ATOM     61  NH1 ARG A   5     -19.850  -6.532 -10.379  1.00  0.00    -0.270 NA
ATOM     62  H   UNL     1     -19.045  -6.235 -10.974  1.00  0.00     0.191 HD
ENDBRANCH  56  61
ENDBRANCH  54  55
ENDBRANCH  53  54
ENDBRANCH  52  53
ENDBRANCH  36  52
ENDBRANCH  33  36
ENDBRANCH  31  32
BRANCH  31  63
ATOM     63  CB  ASN A   4     -19.654 -11.695  -1.525  1.00  0.00     0.134 C 
BRANCH  63  64
ATOM     64  CG  ASN A   4     -20.321 -12.932  -0.999  1.00  0.00     0.220 C 
ATOM     65  ND2 ASN A   4     -19.670 -14.199  -1.096  1.00  0.00    -0.370 N 
ATOM     66  OD1 ASN A   4     -21.476 -12.859  -0.502  1.00  0.00    -0.275 OA
ATOM     67  H   UNL     1     -18.721 -14.279  -1.524  1.00  0.00     0.159 HD
ATOM     68  H   UNL     1     -20.141 -15.062  -0.744  1.00  0.00     0.159 HD
ENDBRANCH  63  64
ENDBRANCH  31  63
ENDBRANCH   3  31
TORSDOF 26
