REMARK SMILES CC(C)[C@H](NC(=O)[C@H](CC(N)=O)NC(=O)[C@H](Cc1ccccc1)NC(=O)[C@@H](N)CO)C(=O)N[C@@H](CCCNC(=N)N)C(=O)N[C@@H](CC(N)=O)C(=O)O
REMARK SMILES IDX 6 1 7 2 5 3 8 5 13 6 14 7 15 8 16 10 24 11 25 12 26 13 27 15
REMARK SMILES IDX 28 16 29 19 30 20 17 22 18 23 19 24 23 25 20 26 22 27 21 28
REMARK SMILES IDX 9 29 10 30 11 31 12 32 4 35 31 36 33 37 32 38 34 40 42 41
REMARK SMILES IDX 44 42 43 43 45 45 50 46 51 47 52 48 46 50 47 51 48 52 49 53
REMARK SMILES IDX 35 56 36 57 37 58 38 59 39 60 41 61 40 65 2 67 1 68 3 69
REMARK H PARENT 5 4 13 9 24 14 28 17 28 18 30 21 11 33 11 34 33 39 44 44 52 49
REMARK H PARENT 48 54 48 55 38 62 41 63 41 64 40 66
ROOT
ATOM      1  C   ASN A   3     -18.388 -10.527  -4.869  1.00  0.00     0.243 C 
ATOM      2  O   ASN A   3     -18.740 -11.398  -5.711  1.00  0.00    -0.273 OA
ATOM      3  N   VAL A   4     -18.861 -10.561  -3.528  1.00  0.00    -0.342 N 
ATOM      4  H   UNL     1     -18.714  -9.709  -2.939  1.00  0.00     0.164 HD
ENDROOT
BRANCH   1   5
ATOM      5  CA  ASN A   3     -17.459  -9.425  -5.249  1.00  0.00     0.180 C 
BRANCH   5   6
ATOM      6  N   ASN A   3     -16.216  -9.997  -5.728  1.00  0.00    -0.342 N 
ATOM      7  C   PHE A   2     -15.259 -10.542  -4.826  1.00  0.00     0.243 C 
ATOM      8  O   PHE A   2     -15.482 -10.576  -3.584  1.00  0.00    -0.273 OA
ATOM      9  H   UNL     1     -16.027 -10.027  -6.756  1.00  0.00     0.164 HD
BRANCH   7  10
ATOM     10  CA  PHE A   2     -13.980 -11.061  -5.384  1.00  0.00     0.175 C 
BRANCH  10  11
ATOM     11  N   PHE A   2     -12.859 -10.484  -4.661  1.00  0.00    -0.343 N 
ATOM     12  C   SER A   1     -12.602  -9.082  -4.708  1.00  0.00     0.239 C 
ATOM     13  O   SER A   1     -13.365  -8.312  -5.356  1.00  0.00    -0.273 OA
ATOM     14  H   UNL     1     -12.223 -11.101  -4.106  1.00  0.00     0.164 HD
BRANCH  12  15
ATOM     15  CA  SER A   1     -11.438  -8.537  -3.932  1.00  0.00     0.167 C 
BRANCH  15  16
ATOM     16  N   SER A   1     -10.845  -7.379  -4.604  1.00  0.00    -0.318 NA
ATOM     17  H   UNL     1     -10.476  -7.686  -5.534  1.00  0.00     0.119 HD
ATOM     18  H   UNL     1     -11.573  -6.650  -4.787  1.00  0.00     0.119 HD
ENDBRANCH  15  16
BRANCH  15  19
ATOM     19  CB  SER A   1     -11.839  -8.203  -2.484  1.00  0.00     0.184 C 
BRANCH  19  20
ATOM     20  OG  SER A   1     -12.058  -6.826  -2.328  1.00  0.00    -0.394 OA
ATOM     21  H   UNL     1     -12.316  -6.693  -1.379  1.00  0.00     0.210 HD
ENDBRANCH  19  20
ENDBRANCH  15  19
ENDBRANCH  12  15
ENDBRANCH  10  11
BRANCH  10  22
ATOM     22  CB  PHE A   2     -13.967 -12.596  -5.326  1.00  0.00     0.070 C 
BRANCH  22  23
ATOM     23  CG  PHE A   2     -12.884 -13.199  -6.183  1.00  0.00    -0.045 A 
ATOM     24  CD1 PHE A   2     -12.723 -12.807  -7.526  1.00  0.00     0.004 A 
ATOM     25  CD2 PHE A   2     -12.092 -14.244  -5.682  1.00  0.00     0.004 A 
ATOM     26  CE1 PHE A   2     -11.747 -13.399  -8.324  1.00  0.00     0.000 A 
ATOM     27  CE2 PHE A   2     -11.134 -14.853  -6.495  1.00  0.00     0.000 A 
ATOM     28  CZ  PHE A   2     -10.955 -14.424  -7.811  1.00  0.00     0.000 A 
ENDBRANCH  22  23
ENDBRANCH  10  22
ENDBRANCH   7  10
ENDBRANCH   5   6
BRANCH   5  29
ATOM     29  CB  ASN A   3     -18.100  -8.508  -6.298  1.00  0.00     0.134 C 
BRANCH  29  30
ATOM     30  CG  ASN A   3     -17.501  -7.133  -6.260  1.00  0.00     0.220 C 
ATOM     31  ND2 ASN A   3     -17.959  -6.169  -5.310  1.00  0.00    -0.370 N 
ATOM     32  OD1 ASN A   3     -16.561  -6.839  -7.045  1.00  0.00    -0.275 OA
ATOM     33  H   UNL     1     -17.530  -5.218  -5.277  1.00  0.00     0.159 HD
ATOM     34  H   UNL     1     -18.719  -6.407  -4.635  1.00  0.00     0.159 HD
ENDBRANCH  29  30
ENDBRANCH   5  29
ENDBRANCH   1   5
BRANCH   3  35
ATOM     35  CA  VAL A   4     -19.806 -11.548  -3.042  1.00  0.00     0.174 C 
BRANCH  35  36
ATOM     36  C   VAL A   4     -21.168 -11.073  -3.453  1.00  0.00     0.243 C 
ATOM     37  N   ARG A   5     -21.502 -11.147  -4.834  1.00  0.00    -0.343 N 
ATOM     38  O   VAL A   4     -21.966 -10.554  -2.626  1.00  0.00    -0.273 OA
ATOM     39  H   UNL     1     -21.054 -11.902  -5.400  1.00  0.00     0.164 HD
BRANCH  37  40
ATOM     40  CA  ARG A   5     -22.675 -10.500  -5.382  1.00  0.00     0.171 C 
BRANCH  40  41
ATOM     41  C   ARG A   5     -23.896 -11.196  -4.883  1.00  0.00     0.243 C 
ATOM     42  N   ASN A   6     -24.981 -10.403  -4.433  1.00  0.00    -0.341 N 
ATOM     43  O   ARG A   5     -23.966 -12.456  -4.867  1.00  0.00    -0.273 OA
ATOM     44  H   UNL     1     -24.929  -9.364  -4.552  1.00  0.00     0.164 HD
BRANCH  42  45
ATOM     45  CA  ASN A   6     -26.189 -10.994  -3.883  1.00  0.00     0.201 C 
BRANCH  45  46
ATOM     46  C   ASN A   6     -27.052 -11.522  -4.997  1.00  0.00     0.326 C 
ATOM     47  O   ASN A   6     -27.151 -10.892  -6.084  1.00  0.00    -0.250 OA
BRANCH  46  48
ATOM     48  OXT ASN A   6     -27.773 -12.698  -4.811  1.00  0.00    -0.480 OA
ATOM     49  H   UNL     1     -28.370 -13.063  -5.543  1.00  0.00     0.296 HD
ENDBRANCH  46  48
ENDBRANCH  45  46
BRANCH  45  50
ATOM     50  CB  ASN A   6     -26.929  -9.934  -3.062  1.00  0.00     0.136 C 
BRANCH  50  51
ATOM     51  CG  ASN A   6     -28.019 -10.549  -2.252  1.00  0.00     0.220 C 
ATOM     52  ND2 ASN A   6     -27.701 -11.241  -1.053  1.00  0.00    -0.370 N 
ATOM     53  OD1 ASN A   6     -29.213 -10.483  -2.643  1.00  0.00    -0.275 OA
ATOM     54  H   UNL     1     -26.713 -11.314  -0.724  1.00  0.00     0.159 HD
ATOM     55  H   UNL     1     -28.456 -11.688  -0.487  1.00  0.00     0.159 HD
ENDBRANCH  50  51
ENDBRANCH  45  50
ENDBRANCH  42  45
ENDBRANCH  40  41
BRANCH  40  56
ATOM     56  CB  ARG A   5     -22.646 -10.520  -6.911  1.00  0.00     0.037 C 
BRANCH  56  57
ATOM     57  CG  ARG A   5     -21.460  -9.718  -7.456  1.00  0.00     0.024 C 
BRANCH  57  58
ATOM     58  CD  ARG A   5     -21.601  -9.481  -8.961  1.00  0.00     0.116 C 
BRANCH  58  59
ATOM     59  NE  ARG A   5     -21.190  -8.118  -9.282  1.00  0.00    -0.357 N 
ATOM     60  CZ  ARG A   5     -20.072  -7.775 -10.101  1.00  0.00     0.185 C 
ATOM     61  NH2 ARG A   5     -19.200  -8.775 -10.616  1.00  0.00    -0.370 N 
ATOM     62  H   UNL     1     -21.778  -7.344  -8.897  1.00  0.00     0.163 HD
ATOM     63  H   UNL     1     -18.493  -8.517 -11.341  1.00  0.00     0.159 HD
ATOM     64  H   UNL     1     -19.101  -9.715 -10.178  1.00  0.00     0.159 HD
BRANCH  60  65
ATOM     65  NH1 ARG A   5     -19.842  -6.533 -10.384  1.00  0.00    -0.270 NA
ATOM     66  H   UNL     1     -20.452  -5.762 -10.031  1.00  0.00     0.191 HD
ENDBRANCH  60  65
ENDBRANCH  58  59
ENDBRANCH  57  58
ENDBRANCH  56  57
ENDBRANCH  40  56
ENDBRANCH  37  40
ENDBRANCH  35  36
BRANCH  35  67
ATOM     67  CB  VAL A   4     -19.635 -11.720  -1.508  1.00  0.00     0.015 C 
ATOM     68  CG1 VAL A   4     -20.382 -12.952  -0.990  1.00  0.00     0.010 C 
ATOM     69  CG2 VAL A   4     -18.151 -11.866  -1.114  1.00  0.00     0.010 C 
ENDBRANCH  35  67
ENDBRANCH   3  35
TORSDOF 27
