REMARK SMILES CC(C)C[C@H](NC(=O)[C@@H](NC(=O)[C@@H](N)CO)C(C)C)C(=O)N[C@@H](CC(N)=O)C(=O)N[C@@H](CCCNC(=N)N)C(=O)N[C@@H](CC(N)=O)C(=O)O
REMARK SMILES IDX 20 1 21 2 22 3 5 5 6 6 7 7 8 8 9 10 10 11 11 12 12 13 13 15
REMARK SMILES IDX 14 16 15 19 16 20 17 22 18 23 19 24 4 25 2 26 1 27 3 28
REMARK SMILES IDX 23 29 28 30 30 31 29 32 31 34 39 35 41 36 40 37 42 39 47 40
REMARK SMILES IDX 48 41 49 42 43 44 44 45 45 46 46 47 32 50 33 51 34 52 35 53
REMARK SMILES IDX 36 54 38 55 37 59 24 61 25 62 26 63 27 64
REMARK H PARENT 22 4 6 9 10 14 14 17 14 18 16 21 30 33 41 38 49 43 45 48 45 49
REMARK H PARENT 35 56 38 57 38 58 37 60 26 65 26 66
ROOT
ATOM      1  C   LEU A   3     -18.384 -10.554  -4.863  1.00  0.00     0.243 C 
ATOM      2  O   LEU A   3     -18.752 -11.409  -5.713  1.00  0.00    -0.273 OA
ATOM      3  N   ASN A   4     -18.837 -10.606  -3.514  1.00  0.00    -0.342 N 
ATOM      4  H   UNL     1     -18.552  -9.839  -2.861  1.00  0.00     0.164 HD
ENDROOT
BRANCH   1   5
ATOM      5  CA  LEU A   3     -17.454  -9.456  -5.242  1.00  0.00     0.171 C 
BRANCH   5   6
ATOM      6  N   LEU A   3     -16.212 -10.013  -5.732  1.00  0.00    -0.343 N 
ATOM      7  C   VAL A   2     -15.248 -10.542  -4.832  1.00  0.00     0.243 C 
ATOM      8  O   VAL A   2     -15.466 -10.569  -3.588  1.00  0.00    -0.273 OA
ATOM      9  H   UNL     1     -16.031 -10.054  -6.762  1.00  0.00     0.164 HD
BRANCH   7  10
ATOM     10  CA  VAL A   2     -13.979 -11.090  -5.394  1.00  0.00     0.173 C 
BRANCH  10  11
ATOM     11  N   VAL A   2     -12.856 -10.494  -4.681  1.00  0.00    -0.343 N 
ATOM     12  C   SER A   1     -12.606  -9.088  -4.717  1.00  0.00     0.239 C 
ATOM     13  O   SER A   1     -13.371  -8.318  -5.362  1.00  0.00    -0.273 OA
ATOM     14  H   UNL     1     -12.231 -11.098  -4.100  1.00  0.00     0.164 HD
BRANCH  12  15
ATOM     15  CA  SER A   1     -11.442  -8.542  -3.939  1.00  0.00     0.167 C 
BRANCH  15  16
ATOM     16  N   SER A   1     -10.846  -7.384  -4.609  1.00  0.00    -0.318 NA
ATOM     17  H   UNL     1     -11.574  -6.657  -4.802  1.00  0.00     0.119 HD
ATOM     18  H   UNL     1     -10.468  -7.693  -5.534  1.00  0.00     0.119 HD
ENDBRANCH  15  16
BRANCH  15  19
ATOM     19  CB  SER A   1     -11.844  -8.204  -2.490  1.00  0.00     0.184 C 
BRANCH  19  20
ATOM     20  OG  SER A   1     -12.062  -6.828  -2.324  1.00  0.00    -0.394 OA
ATOM     21  H   UNL     1     -12.974  -6.646  -2.671  1.00  0.00     0.210 HD
ENDBRANCH  19  20
ENDBRANCH  15  19
ENDBRANCH  12  15
ENDBRANCH  10  11
BRANCH  10  22
ATOM     22  CB  VAL A   2     -13.955 -12.637  -5.305  1.00  0.00     0.015 C 
ATOM     23  CG1 VAL A   2     -12.822 -13.207  -6.164  1.00  0.00     0.010 C 
ATOM     24  CG2 VAL A   2     -15.280 -13.280  -5.763  1.00  0.00     0.010 C 
ENDBRANCH  10  22
ENDBRANCH   7  10
ENDBRANCH   5   6
BRANCH   5  25
ATOM     25  CB  LEU A   3     -18.102  -8.526  -6.274  1.00  0.00     0.038 C 
BRANCH  25  26
ATOM     26  CG  LEU A   3     -17.544  -7.091  -6.222  1.00  0.00    -0.015 C 
ATOM     27  CD1 LEU A   3     -18.189  -6.263  -7.337  1.00  0.00     0.007 C 
ATOM     28  CD2 LEU A   3     -17.812  -6.422  -4.860  1.00  0.00     0.007 C 
ENDBRANCH  25  26
ENDBRANCH   5  25
ENDBRANCH   1   5
BRANCH   3  29
ATOM     29  CA  ASN A   4     -19.821 -11.562  -3.040  1.00  0.00     0.180 C 
BRANCH  29  30
ATOM     30  C   ASN A   4     -21.169 -11.065  -3.458  1.00  0.00     0.243 C 
ATOM     31  N   ARG A   5     -21.502 -11.143  -4.839  1.00  0.00    -0.343 N 
ATOM     32  O   ASN A   4     -21.970 -10.548  -2.632  1.00  0.00    -0.273 OA
ATOM     33  H   UNL     1     -21.062 -11.906  -5.399  1.00  0.00     0.164 HD
BRANCH  31  34
ATOM     34  CA  ARG A   5     -22.677 -10.498  -5.385  1.00  0.00     0.171 C 
BRANCH  34  35
ATOM     35  C   ARG A   5     -23.896 -11.195  -4.884  1.00  0.00     0.243 C 
ATOM     36  N   ASN A   6     -24.981 -10.402  -4.433  1.00  0.00    -0.341 N 
ATOM     37  O   ARG A   5     -23.965 -12.455  -4.867  1.00  0.00    -0.273 OA
ATOM     38  H   UNL     1     -24.930  -9.364  -4.552  1.00  0.00     0.164 HD
BRANCH  36  39
ATOM     39  CA  ASN A   6     -26.189 -10.994  -3.883  1.00  0.00     0.201 C 
BRANCH  39  40
ATOM     40  C   ASN A   6     -27.052 -11.522  -4.997  1.00  0.00     0.326 C 
ATOM     41  O   ASN A   6     -27.151 -10.892  -6.084  1.00  0.00    -0.250 OA
BRANCH  40  42
ATOM     42  OXT ASN A   6     -27.773 -12.698  -4.811  1.00  0.00    -0.480 OA
ATOM     43  H   UNL     1     -28.370 -13.063  -5.543  1.00  0.00     0.296 HD
ENDBRANCH  40  42
ENDBRANCH  39  40
BRANCH  39  44
ATOM     44  CB  ASN A   6     -26.929  -9.934  -3.062  1.00  0.00     0.136 C 
BRANCH  44  45
ATOM     45  CG  ASN A   6     -28.019 -10.549  -2.252  1.00  0.00     0.220 C 
ATOM     46  ND2 ASN A   6     -27.701 -11.241  -1.053  1.00  0.00    -0.370 N 
ATOM     47  OD1 ASN A   6     -29.213 -10.483  -2.643  1.00  0.00    -0.275 OA
ATOM     48  H   UNL     1     -26.713 -11.314  -0.724  1.00  0.00     0.159 HD
ATOM     49  H   UNL     1     -28.456 -11.688  -0.487  1.00  0.00     0.159 HD
ENDBRANCH  44  45
ENDBRANCH  39  44
ENDBRANCH  36  39
ENDBRANCH  34  35
BRANCH  34  50
ATOM     50  CB  ARG A   5     -22.647 -10.519  -6.914  1.00  0.00     0.037 C 
BRANCH  50  51
ATOM     51  CG  ARG A   5     -21.460  -9.719  -7.458  1.00  0.00     0.024 C 
BRANCH  51  52
ATOM     52  CD  ARG A   5     -21.601  -9.480  -8.962  1.00  0.00     0.116 C 
BRANCH  52  53
ATOM     53  NE  ARG A   5     -21.190  -8.117  -9.282  1.00  0.00    -0.357 N 
ATOM     54  CZ  ARG A   5     -20.075  -7.775 -10.105  1.00  0.00     0.185 C 
ATOM     55  NH2 ARG A   5     -19.200  -8.774 -10.616  1.00  0.00    -0.370 N 
ATOM     56  H   UNL     1     -21.775  -7.342  -8.893  1.00  0.00     0.163 HD
ATOM     57  H   UNL     1     -18.494  -8.518 -11.341  1.00  0.00     0.159 HD
ATOM     58  H   UNL     1     -19.097  -9.711 -10.171  1.00  0.00     0.159 HD
BRANCH  54  59
ATOM     59  NH1 ARG A   5     -19.847  -6.533 -10.392  1.00  0.00    -0.270 NA
ATOM     60  H   UNL     1     -20.457  -5.762 -10.039  1.00  0.00     0.191 HD
ENDBRANCH  54  59
ENDBRANCH  52  53
ENDBRANCH  51  52
ENDBRANCH  50  51
ENDBRANCH  34  50
ENDBRANCH  31  34
ENDBRANCH  29  30
BRANCH  29  61
ATOM     61  CB  ASN A   4     -19.670 -11.711  -1.516  1.00  0.00     0.134 C 
BRANCH  61  62
ATOM     62  CG  ASN A   4     -20.337 -12.945  -0.990  1.00  0.00     0.220 C 
ATOM     63  ND2 ASN A   4     -19.705 -14.218  -1.117  1.00  0.00    -0.370 N 
ATOM     64  OD1 ASN A   4     -21.479 -12.863  -0.464  1.00  0.00    -0.275 OA
ATOM     65  H   UNL     1     -18.768 -14.305  -1.570  1.00  0.00     0.159 HD
ATOM     66  H   UNL     1     -20.178 -15.079  -0.763  1.00  0.00     0.159 HD
ENDBRANCH  61  62
ENDBRANCH  29  61
ENDBRANCH   3  29
TORSDOF 27
