REMARK SMILES CC(C)C[C@H](NC(=O)[C@H](CCC(N)=O)NC(=O)[C@@H](N)CO)C(=O)N1CCC[C@H]1C(=O)N[C@@H](CCCNC(=N)N)C(=O)N[C@@H](CC(N)=O)C(=O)O
REMARK SMILES IDX 24 1 28 2 27 3 26 4 25 5 22 6 23 7 5 8 6 9 7 10 8 11 9 13
REMARK SMILES IDX 15 14 16 15 17 16 18 18 19 19 20 22 21 23 10 25 11 26 12 27
REMARK SMILES IDX 13 28 14 29 4 32 2 33 1 34 3 35 29 36 31 37 30 38 32 40
REMARK SMILES IDX 40 41 42 42 41 43 43 45 48 46 49 47 50 48 44 50 45 51 46 52
REMARK SMILES IDX 47 53 33 56 34 57 35 58 36 59 37 60 39 61 38 65
REMARK H PARENT 6 12 15 17 19 20 19 21 21 24 13 30 13 31 31 39 42 44 50 49
REMARK H PARENT 46 54 46 55 36 62 39 63 39 64 38 66
ROOT
ATOM      1  N   PRO A   4     -19.452 -11.087  -1.673  1.00  0.00    -0.329 N 
ATOM      2  CA  PRO A   4     -19.798 -11.549  -3.014  1.00  0.00     0.174 C 
ATOM      3  CB  PRO A   4     -19.825 -13.079  -2.930  1.00  0.00     0.037 C 
ATOM      4  CG  PRO A   4     -19.164 -13.442  -1.604  1.00  0.00     0.024 C 
ATOM      5  CD  PRO A   4     -19.220 -12.185  -0.749  1.00  0.00     0.120 C 
ENDROOT
BRANCH   1   6
ATOM      6  C   LEU A   3     -19.208  -9.714  -1.299  1.00  0.00     0.245 C 
ATOM      7  O   LEU A   3     -19.098  -9.428  -0.075  1.00  0.00    -0.272 OA
BRANCH   6   8
ATOM      8  CA  LEU A   3     -19.010  -8.631  -2.344  1.00  0.00     0.171 C 
BRANCH   8   9
ATOM      9  N   LEU A   3     -19.420  -7.314  -1.830  1.00  0.00    -0.343 N 
ATOM     10  C   GLN A   2     -18.814  -6.618  -0.723  1.00  0.00     0.243 C 
ATOM     11  O   GLN A   2     -17.720  -7.019  -0.240  1.00  0.00    -0.273 OA
ATOM     12  H   UNL     1     -20.262  -6.882  -2.273  1.00  0.00     0.164 HD
BRANCH  10  13
ATOM     13  CA  GLN A   2     -19.462  -5.359  -0.187  1.00  0.00     0.171 C 
BRANCH  13  14
ATOM     14  N   GLN A   2     -20.922  -5.508  -0.160  1.00  0.00    -0.343 N 
ATOM     15  C   SER A   1     -21.811  -4.395  -0.352  1.00  0.00     0.239 C 
ATOM     16  O   SER A   1     -21.351  -3.219  -0.371  1.00  0.00    -0.273 OA
ATOM     17  H   UNL     1     -21.324  -6.455   0.028  1.00  0.00     0.164 HD
BRANCH  15  18
ATOM     18  CA  SER A   1     -23.294  -4.605  -0.531  1.00  0.00     0.167 C 
BRANCH  18  19
ATOM     19  N   SER A   1     -23.552  -5.636  -1.541  1.00  0.00    -0.318 NA
ATOM     20  H   UNL     1     -24.572  -5.626  -1.773  1.00  0.00     0.119 HD
ATOM     21  H   UNL     1     -23.339  -6.585  -1.156  1.00  0.00     0.119 HD
ENDBRANCH  18  19
BRANCH  18  22
ATOM     22  CB  SER A   1     -24.000  -4.911   0.803  1.00  0.00     0.184 C 
BRANCH  22  23
ATOM     23  OG  SER A   1     -23.581  -6.137   1.342  1.00  0.00    -0.394 OA
ATOM     24  H   UNL     1     -22.840  -5.936   1.973  1.00  0.00     0.210 HD
ENDBRANCH  22  23
ENDBRANCH  18  22
ENDBRANCH  15  18
ENDBRANCH  13  14
BRANCH  13  25
ATOM     25  CB  GLN A   2     -18.940  -4.946   1.208  1.00  0.00     0.045 C 
BRANCH  25  26
ATOM     26  CG  GLN A   2     -19.302  -5.946   2.318  1.00  0.00     0.102 C 
BRANCH  26  27
ATOM     27  CD  GLN A   2     -18.722  -5.504   3.628  1.00  0.00     0.217 C 
ATOM     28  NE2 GLN A   2     -17.348  -5.757   3.930  1.00  0.00    -0.370 N 
ATOM     29  OE1 GLN A   2     -19.438  -4.874   4.452  1.00  0.00    -0.275 OA
ATOM     30  H   UNL     1     -16.738  -6.264   3.249  1.00  0.00     0.159 HD
ATOM     31  H   UNL     1     -16.937  -5.438   4.837  1.00  0.00     0.159 HD
ENDBRANCH  26  27
ENDBRANCH  25  26
ENDBRANCH  13  25
ENDBRANCH  10  13
ENDBRANCH   8   9
BRANCH   8  32
ATOM     32  CB  LEU A   3     -17.560  -8.630  -2.889  1.00  0.00     0.038 C 
BRANCH  32  33
ATOM     33  CG  LEU A   3     -17.431  -8.018  -4.307  1.00  0.00    -0.015 C 
ATOM     34  CD1 LEU A   3     -17.745  -6.515  -4.324  1.00  0.00     0.007 C 
ATOM     35  CD2 LEU A   3     -16.016  -8.257  -4.852  1.00  0.00     0.007 C 
ENDBRANCH  32  33
ENDBRANCH   8  32
ENDBRANCH   6   8
ENDBRANCH   1   6
BRANCH   2  36
ATOM     36  C   PRO A   4     -21.132 -11.022  -3.459  1.00  0.00     0.243 C 
ATOM     37  N   ARG A   5     -21.454 -11.098  -4.840  1.00  0.00    -0.343 N 
ATOM     38  O   PRO A   4     -21.966 -10.569  -2.627  1.00  0.00    -0.273 OA
ATOM     39  H   UNL     1     -20.817 -11.649  -5.459  1.00  0.00     0.164 HD
BRANCH  37  40
ATOM     40  CA  ARG A   5     -22.657 -10.493  -5.389  1.00  0.00     0.171 C 
BRANCH  40  41
ATOM     41  C   ARG A   5     -23.876 -11.196  -4.877  1.00  0.00     0.243 C 
ATOM     42  N   ASN A   6     -24.969 -10.404  -4.433  1.00  0.00    -0.341 N 
ATOM     43  O   ARG A   5     -23.943 -12.456  -4.861  1.00  0.00    -0.273 OA
ATOM     44  H   UNL     1     -24.922  -9.366  -4.556  1.00  0.00     0.164 HD
BRANCH  42  45
ATOM     45  CA  ASN A   6     -26.180 -10.995  -3.884  1.00  0.00     0.201 C 
BRANCH  45  46
ATOM     46  C   ASN A   6     -27.044 -11.525  -4.997  1.00  0.00     0.326 C 
ATOM     47  O   ASN A   6     -27.150 -10.895  -6.083  1.00  0.00    -0.250 OA
BRANCH  46  48
ATOM     48  OXT ASN A   6     -27.758 -12.704  -4.806  1.00  0.00    -0.480 OA
ATOM     49  H   UNL     1     -28.357 -13.073  -5.535  1.00  0.00     0.296 HD
ENDBRANCH  46  48
ENDBRANCH  45  46
BRANCH  45  50
ATOM     50  CB  ASN A   6     -26.925  -9.934  -3.065  1.00  0.00     0.136 C 
BRANCH  50  51
ATOM     51  CG  ASN A   6     -28.016 -10.549  -2.256  1.00  0.00     0.220 C 
ATOM     52  ND2 ASN A   6     -27.699 -11.241  -1.057  1.00  0.00    -0.370 N 
ATOM     53  OD1 ASN A   6     -29.210 -10.481  -2.645  1.00  0.00    -0.275 OA
ATOM     54  H   UNL     1     -28.454 -11.686  -0.489  1.00  0.00     0.159 HD
ATOM     55  H   UNL     1     -26.711 -11.314  -0.728  1.00  0.00     0.159 HD
ENDBRANCH  50  51
ENDBRANCH  45  50
ENDBRANCH  42  45
ENDBRANCH  40  41
BRANCH  40  56
ATOM     56  CB  ARG A   5     -22.632 -10.526  -6.916  1.00  0.00     0.037 C 
BRANCH  56  57
ATOM     57  CG  ARG A   5     -21.454  -9.712  -7.465  1.00  0.00     0.024 C 
BRANCH  57  58
ATOM     58  CD  ARG A   5     -21.607  -9.475  -8.968  1.00  0.00     0.116 C 
BRANCH  58  59
ATOM     59  NE  ARG A   5     -21.193  -8.114  -9.293  1.00  0.00    -0.357 N 
ATOM     60  CZ  ARG A   5     -20.072  -7.776 -10.105  1.00  0.00     0.185 C 
ATOM     61  NH2 ARG A   5     -19.201  -8.781 -10.620  1.00  0.00    -0.370 N 
ATOM     62  H   UNL     1     -21.775  -7.332  -8.913  1.00  0.00     0.163 HD
ATOM     63  H   UNL     1     -19.111  -9.721 -10.182  1.00  0.00     0.159 HD
ATOM     64  H   UNL     1     -18.500  -8.536 -11.354  1.00  0.00     0.159 HD
BRANCH  60  65
ATOM     65  NH1 ARG A   5     -19.847  -6.530 -10.379  1.00  0.00    -0.270 NA
ATOM     66  H   UNL     1     -19.040  -6.232 -10.971  1.00  0.00     0.191 HD
ENDBRANCH  60  65
ENDBRANCH  58  59
ENDBRANCH  57  58
ENDBRANCH  56  57
ENDBRANCH  40  56
ENDBRANCH  37  40
ENDBRANCH   2  36
TORSDOF 27
