REMARK SMILES CC(C)C[C@H](NC(=O)[C@H](CCCNC(=N)N)NC(=O)[C@H](Cc1ccccc1)NC(=O)[C@@H](N)CO)C(=O)NCC(=O)N[C@@H](CC(N)=O)C(=O)O
REMARK SMILES IDX 7 1 8 2 6 3 9 5 17 6 18 7 19 8 20 10 28 11 29 12 30 13 31 15
REMARK SMILES IDX 32 16 33 19 34 20 21 22 22 23 23 24 27 25 24 26 26 27 25 28
REMARK SMILES IDX 10 29 11 30 12 31 13 32 14 33 16 34 15 38 5 40 35 41 37 42
REMARK SMILES IDX 36 43 38 45 39 46 41 47 40 48 42 50 47 51 48 52 49 53 43 55
REMARK SMILES IDX 44 56 45 57 46 58 4 61 2 62 1 63 3 64
REMARK H PARENT 6 4 17 9 28 14 32 17 32 18 34 21 13 35 16 36 16 37 15 39 37 44
REMARK H PARENT 41 49 49 54 45 59 45 60
ROOT
ATOM      1  C   ARG A   3     -18.382 -10.534  -4.868  1.00  0.00     0.243 C 
ATOM      2  O   ARG A   3     -18.741 -11.395  -5.718  1.00  0.00    -0.273 OA
ATOM      3  N   LEU A   4     -18.847 -10.578  -3.526  1.00  0.00    -0.343 N 
ATOM      4  H   UNL     1     -18.588  -9.794  -2.884  1.00  0.00     0.164 HD
ENDROOT
BRANCH   1   5
ATOM      5  CA  ARG A   3     -17.457  -9.432  -5.246  1.00  0.00     0.171 C 
BRANCH   5   6
ATOM      6  N   ARG A   3     -16.213  -9.998  -5.726  1.00  0.00    -0.343 N 
ATOM      7  C   PHE A   2     -15.256 -10.542  -4.825  1.00  0.00     0.243 C 
ATOM      8  O   PHE A   2     -15.479 -10.576  -3.583  1.00  0.00    -0.273 OA
ATOM      9  H   UNL     1     -16.019 -10.019  -6.753  1.00  0.00     0.164 HD
BRANCH   7  10
ATOM     10  CA  PHE A   2     -13.977 -11.060  -5.383  1.00  0.00     0.175 C 
BRANCH  10  11
ATOM     11  N   PHE A   2     -12.857 -10.484  -4.659  1.00  0.00    -0.343 N 
ATOM     12  C   SER A   1     -12.596  -9.082  -4.702  1.00  0.00     0.239 C 
ATOM     13  O   SER A   1     -13.354  -8.307  -5.350  1.00  0.00    -0.273 OA
ATOM     14  H   UNL     1     -12.223 -11.103  -4.104  1.00  0.00     0.164 HD
BRANCH  12  15
ATOM     15  CA  SER A   1     -11.429  -8.546  -3.932  1.00  0.00     0.167 C 
BRANCH  15  16
ATOM     16  N   SER A   1     -10.863  -7.381  -4.610  1.00  0.00    -0.318 NA
ATOM     17  H   UNL     1     -10.000  -7.089  -4.094  1.00  0.00     0.119 HD
ATOM     18  H   UNL     1     -10.541  -7.676  -5.561  1.00  0.00     0.119 HD
ENDBRANCH  15  16
BRANCH  15  19
ATOM     19  CB  SER A   1     -11.840  -8.203  -2.486  1.00  0.00     0.184 C 
BRANCH  19  20
ATOM     20  OG  SER A   1     -12.064  -6.827  -2.332  1.00  0.00    -0.394 OA
ATOM     21  H   UNL     1     -12.953  -6.643  -2.733  1.00  0.00     0.210 HD
ENDBRANCH  19  20
ENDBRANCH  15  19
ENDBRANCH  12  15
ENDBRANCH  10  11
BRANCH  10  22
ATOM     22  CB  PHE A   2     -13.966 -12.595  -5.326  1.00  0.00     0.070 C 
BRANCH  22  23
ATOM     23  CG  PHE A   2     -12.883 -13.199  -6.184  1.00  0.00    -0.045 A 
ATOM     24  CD1 PHE A   2     -12.723 -12.807  -7.526  1.00  0.00     0.004 A 
ATOM     25  CD2 PHE A   2     -12.092 -14.243  -5.682  1.00  0.00     0.004 A 
ATOM     26  CE1 PHE A   2     -11.747 -13.399  -8.324  1.00  0.00     0.000 A 
ATOM     27  CE2 PHE A   2     -11.134 -14.853  -6.495  1.00  0.00     0.000 A 
ATOM     28  CZ  PHE A   2     -10.955 -14.424  -7.811  1.00  0.00     0.000 A 
ENDBRANCH  22  23
ENDBRANCH  10  22
ENDBRANCH   7  10
ENDBRANCH   5   6
BRANCH   5  29
ATOM     29  CB  ARG A   3     -18.108  -8.532  -6.298  1.00  0.00     0.037 C 
BRANCH  29  30
ATOM     30  CG  ARG A   3     -17.524  -7.116  -6.269  1.00  0.00     0.024 C 
BRANCH  30  31
ATOM     31  CD  ARG A   3     -18.196  -6.229  -7.320  1.00  0.00     0.116 C 
BRANCH  31  32
ATOM     32  NE  ARG A   3     -17.793  -6.600  -8.680  1.00  0.00    -0.357 N 
ATOM     33  CZ  ARG A   3     -18.304  -5.954  -9.859  1.00  0.00     0.185 C 
ATOM     34  NH2 ARG A   3     -17.876  -6.403 -11.145  1.00  0.00    -0.370 N 
ATOM     35  H   UNL     1     -17.091  -7.362  -8.815  1.00  0.00     0.163 HD
ATOM     36  H   UNL     1     -17.201  -7.194 -11.234  1.00  0.00     0.159 HD
ATOM     37  H   UNL     1     -18.234  -5.946 -12.014  1.00  0.00     0.159 HD
BRANCH  33  38
ATOM     38  NH1 ARG A   3     -19.145  -4.968  -9.784  1.00  0.00    -0.270 NA
ATOM     39  H   UNL     1     -19.502  -4.582  -8.884  1.00  0.00     0.191 HD
ENDBRANCH  33  38
ENDBRANCH  31  32
ENDBRANCH  30  31
ENDBRANCH  29  30
ENDBRANCH   5  29
ENDBRANCH   1   5
BRANCH   3  40
ATOM     40  CA  LEU A   4     -19.823 -11.542  -3.062  1.00  0.00     0.171 C 
BRANCH  40  41
ATOM     41  C   LEU A   4     -21.176 -11.053  -3.476  1.00  0.00     0.243 C 
ATOM     42  N   GLY A   5     -21.507 -11.114  -4.862  1.00  0.00    -0.345 N 
ATOM     43  O   LEU A   4     -21.980 -10.551  -2.644  1.00  0.00    -0.273 OA
ATOM     44  H   UNL     1     -21.034 -11.824  -5.460  1.00  0.00     0.164 HD
BRANCH  42  45
ATOM     45  CA  GLY A   5     -22.689 -10.497  -5.416  1.00  0.00     0.216 C 
BRANCH  45  46
ATOM     46  C   GLY A   5     -23.898 -11.189  -4.894  1.00  0.00     0.240 C 
ATOM     47  N   ASN A   6     -24.979 -10.397  -4.430  1.00  0.00    -0.341 N 
ATOM     48  O   GLY A   5     -23.965 -12.449  -4.872  1.00  0.00    -0.273 OA
ATOM     49  H   UNL     1     -24.919  -9.357  -4.531  1.00  0.00     0.164 HD
BRANCH  47  50
ATOM     50  CA  ASN A   6     -26.187 -10.991  -3.882  1.00  0.00     0.201 C 
BRANCH  50  51
ATOM     51  C   ASN A   6     -27.050 -11.521  -4.996  1.00  0.00     0.326 C 
ATOM     52  O   ASN A   6     -27.151 -10.891  -6.083  1.00  0.00    -0.250 OA
BRANCH  51  53
ATOM     53  OXT ASN A   6     -27.767 -12.699  -4.809  1.00  0.00    -0.480 OA
ATOM     54  H   UNL     1     -28.364 -13.065  -5.541  1.00  0.00     0.296 HD
ENDBRANCH  51  53
ENDBRANCH  50  51
BRANCH  50  55
ATOM     55  CB  ASN A   6     -26.930  -9.933  -3.062  1.00  0.00     0.136 C 
BRANCH  55  56
ATOM     56  CG  ASN A   6     -28.019 -10.549  -2.252  1.00  0.00     0.220 C 
ATOM     57  ND2 ASN A   6     -27.701 -11.242  -1.054  1.00  0.00    -0.370 N 
ATOM     58  OD1 ASN A   6     -29.213 -10.484  -2.643  1.00  0.00    -0.275 OA
ATOM     59  H   UNL     1     -28.456 -11.689  -0.488  1.00  0.00     0.159 HD
ATOM     60  H   UNL     1     -26.713 -11.314  -0.724  1.00  0.00     0.159 HD
ENDBRANCH  55  56
ENDBRANCH  50  55
ENDBRANCH  47  50
ENDBRANCH  45  46
ENDBRANCH  42  45
ENDBRANCH  40  41
BRANCH  40  61
ATOM     61  CB  LEU A   4     -19.660 -11.691  -1.540  1.00  0.00     0.038 C 
BRANCH  61  62
ATOM     62  CG  LEU A   4     -20.298 -12.957  -0.948  1.00  0.00    -0.015 C 
ATOM     63  CD1 LEU A   4     -19.610 -14.232  -1.463  1.00  0.00     0.007 C 
ATOM     64  CD2 LEU A   4     -20.195 -12.897   0.580  1.00  0.00     0.007 C 
ENDBRANCH  61  62
ENDBRANCH  40  61
ENDBRANCH   3  40
TORSDOF 26
