REMARK SMILES CC[C@H](C)[C@H](NC(=O)[C@@H](N)CO)C(=O)N[C@@H](CC(C)C)C(=O)N[C@@H](Cc1c[nH]cn1)C(=O)N[C@@H](CCCNC(=N)N)C(=O)N[C@@H](CC(N)=O)C(=O)O
REMARK SMILES IDX 21 1 22 2 23 3 16 5 15 6 13 7 14 8 5 10 6 11 7 12 8 13 9 15
REMARK SMILES IDX 10 16 11 19 12 20 3 22 4 23 2 24 1 25 17 26 18 27 19 28
REMARK SMILES IDX 20 29 24 30 31 31 33 32 32 33 34 35 42 36 44 37 43 38 45 40
REMARK SMILES IDX 50 41 51 42 52 43 46 45 47 46 48 47 49 48 35 51 36 52 37 53
REMARK SMILES IDX 38 54 39 55 41 56 40 60 25 62 26 63 30 64 27 65 29 66 28 67
REMARK H PARENT 23 4 15 9 6 14 10 17 10 18 12 21 33 34 44 39 52 44 48 49 48 50
REMARK H PARENT 38 57 41 58 41 59 40 61 28 68
ROOT
ATOM      1  C   LEU A   3     -18.385 -10.555  -4.865  1.00  0.00     0.243 C 
ATOM      2  O   LEU A   3     -18.755 -11.410  -5.714  1.00  0.00    -0.273 OA
ATOM      3  N   HIS A   4     -18.837 -10.605  -3.515  1.00  0.00    -0.342 N 
ATOM      4  H   UNL     1     -18.549  -9.839  -2.862  1.00  0.00     0.164 HD
ENDROOT
BRANCH   1   5
ATOM      5  CA  LEU A   3     -17.451  -9.460  -5.247  1.00  0.00     0.171 C 
BRANCH   5   6
ATOM      6  N   LEU A   3     -16.209 -10.026  -5.736  1.00  0.00    -0.343 N 
ATOM      7  C   ILE A   2     -15.251 -10.554  -4.828  1.00  0.00     0.243 C 
ATOM      8  O   ILE A   2     -15.475 -10.545  -3.585  1.00  0.00    -0.273 OA
ATOM      9  H   UNL     1     -16.028 -10.076  -6.765  1.00  0.00     0.164 HD
BRANCH   7  10
ATOM     10  CA  ILE A   2     -13.967 -11.097  -5.369  1.00  0.00     0.174 C 
BRANCH  10  11
ATOM     11  N   ILE A   2     -12.843 -10.489  -4.670  1.00  0.00    -0.343 N 
ATOM     12  C   SER A   1     -12.603  -9.084  -4.713  1.00  0.00     0.239 C 
ATOM     13  O   SER A   1     -13.373  -8.320  -5.358  1.00  0.00    -0.273 OA
ATOM     14  H   UNL     1     -12.168 -11.087  -4.145  1.00  0.00     0.164 HD
BRANCH  12  15
ATOM     15  CA  SER A   1     -11.440  -8.534  -3.938  1.00  0.00     0.167 C 
BRANCH  15  16
ATOM     16  N   SER A   1     -10.848  -7.376  -4.609  1.00  0.00    -0.318 NA
ATOM     17  H   UNL     1     -10.472  -7.684  -5.536  1.00  0.00     0.119 HD
ATOM     18  H   UNL     1     -11.578  -6.651  -4.801  1.00  0.00     0.119 HD
ENDBRANCH  15  16
BRANCH  15  19
ATOM     19  CB  SER A   1     -11.840  -8.200  -2.489  1.00  0.00     0.184 C 
BRANCH  19  20
ATOM     20  OG  SER A   1     -12.063  -6.825  -2.322  1.00  0.00    -0.394 OA
ATOM     21  H   UNL     1     -12.976  -6.646  -2.667  1.00  0.00     0.210 HD
ENDBRANCH  19  20
ENDBRANCH  15  19
ENDBRANCH  12  15
ENDBRANCH  10  11
BRANCH  10  22
ATOM     22  CB  ILE A   2     -13.948 -12.647  -5.294  1.00  0.00     0.018 C 
ATOM     23  CG1 ILE A   2     -12.857 -13.211  -6.211  1.00  0.00     0.010 C 
BRANCH  22  24
ATOM     24  CG2 ILE A   2     -13.791 -13.219  -3.855  1.00  0.00     0.002 C 
ATOM     25  CD1 ILE A   2     -14.387 -14.621  -3.719  1.00  0.00     0.004 C 
ENDBRANCH  22  24
ENDBRANCH  10  22
ENDBRANCH   7  10
ENDBRANCH   5   6
BRANCH   5  26
ATOM     26  CB  LEU A   3     -18.097  -8.528  -6.278  1.00  0.00     0.038 C 
BRANCH  26  27
ATOM     27  CG  LEU A   3     -17.542  -7.092  -6.223  1.00  0.00    -0.015 C 
ATOM     28  CD1 LEU A   3     -18.188  -6.264  -7.337  1.00  0.00     0.007 C 
ATOM     29  CD2 LEU A   3     -17.813  -6.425  -4.860  1.00  0.00     0.007 C 
ENDBRANCH  26  27
ENDBRANCH   5  26
ENDBRANCH   1   5
BRANCH   3  30
ATOM     30  CA  HIS A   4     -19.821 -11.561  -3.040  1.00  0.00     0.177 C 
BRANCH  30  31
ATOM     31  C   HIS A   4     -21.169 -11.064  -3.459  1.00  0.00     0.243 C 
ATOM     32  N   ARG A   5     -21.502 -11.143  -4.839  1.00  0.00    -0.343 N 
ATOM     33  O   HIS A   4     -21.969 -10.545  -2.633  1.00  0.00    -0.273 OA
ATOM     34  H   UNL     1     -21.064 -11.908  -5.398  1.00  0.00     0.164 HD
BRANCH  32  35
ATOM     35  CA  ARG A   5     -22.677 -10.498  -5.385  1.00  0.00     0.171 C 
BRANCH  35  36
ATOM     36  C   ARG A   5     -23.896 -11.195  -4.884  1.00  0.00     0.243 C 
ATOM     37  N   ASN A   6     -24.981 -10.402  -4.433  1.00  0.00    -0.341 N 
ATOM     38  O   ARG A   5     -23.965 -12.455  -4.867  1.00  0.00    -0.273 OA
ATOM     39  H   UNL     1     -24.930  -9.364  -4.552  1.00  0.00     0.164 HD
BRANCH  37  40
ATOM     40  CA  ASN A   6     -26.189 -10.994  -3.883  1.00  0.00     0.201 C 
BRANCH  40  41
ATOM     41  C   ASN A   6     -27.052 -11.522  -4.997  1.00  0.00     0.326 C 
ATOM     42  O   ASN A   6     -27.151 -10.892  -6.084  1.00  0.00    -0.250 OA
BRANCH  41  43
ATOM     43  OXT ASN A   6     -27.773 -12.698  -4.811  1.00  0.00    -0.480 OA
ATOM     44  H   UNL     1     -28.370 -13.063  -5.543  1.00  0.00     0.296 HD
ENDBRANCH  41  43
ENDBRANCH  40  41
BRANCH  40  45
ATOM     45  CB  ASN A   6     -26.929  -9.934  -3.062  1.00  0.00     0.136 C 
BRANCH  45  46
ATOM     46  CG  ASN A   6     -28.019 -10.549  -2.252  1.00  0.00     0.220 C 
ATOM     47  ND2 ASN A   6     -27.701 -11.242  -1.053  1.00  0.00    -0.370 N 
ATOM     48  OD1 ASN A   6     -29.213 -10.483  -2.643  1.00  0.00    -0.275 OA
ATOM     49  H   UNL     1     -26.712 -11.315  -0.725  1.00  0.00     0.159 HD
ATOM     50  H   UNL     1     -28.456 -11.688  -0.487  1.00  0.00     0.159 HD
ENDBRANCH  45  46
ENDBRANCH  40  45
ENDBRANCH  37  40
ENDBRANCH  35  36
BRANCH  35  51
ATOM     51  CB  ARG A   5     -22.647 -10.519  -6.914  1.00  0.00     0.037 C 
BRANCH  51  52
ATOM     52  CG  ARG A   5     -21.460  -9.719  -7.458  1.00  0.00     0.024 C 
BRANCH  52  53
ATOM     53  CD  ARG A   5     -21.602  -9.480  -8.962  1.00  0.00     0.116 C 
BRANCH  53  54
ATOM     54  NE  ARG A   5     -21.190  -8.117  -9.282  1.00  0.00    -0.357 N 
ATOM     55  CZ  ARG A   5     -20.075  -7.775 -10.104  1.00  0.00     0.185 C 
ATOM     56  NH2 ARG A   5     -19.200  -8.774 -10.616  1.00  0.00    -0.370 N 
ATOM     57  H   UNL     1     -21.774  -7.342  -8.893  1.00  0.00     0.163 HD
ATOM     58  H   UNL     1     -18.494  -8.518 -11.341  1.00  0.00     0.159 HD
ATOM     59  H   UNL     1     -19.097  -9.711 -10.171  1.00  0.00     0.159 HD
BRANCH  55  60
ATOM     60  NH1 ARG A   5     -19.847  -6.533 -10.392  1.00  0.00    -0.270 NA
ATOM     61  H   UNL     1     -20.457  -5.762 -10.039  1.00  0.00     0.191 HD
ENDBRANCH  55  60
ENDBRANCH  53  54
ENDBRANCH  52  53
ENDBRANCH  51  52
ENDBRANCH  35  51
ENDBRANCH  32  35
ENDBRANCH  30  31
BRANCH  30  62
ATOM     62  CB  HIS A   4     -19.670 -11.710  -1.515  1.00  0.00     0.093 C 
BRANCH  62  63
ATOM     63  CG  HIS A   4     -20.335 -12.945  -0.992  1.00  0.00     0.061 A 
ATOM     64  ND1 HIS A   4     -19.790 -14.176  -1.050  1.00  0.00    -0.242 NA
ATOM     65  CD2 HIS A   4     -21.605 -13.019  -0.465  1.00  0.00     0.107 A 
ATOM     66  CE1 HIS A   4     -20.746 -14.978  -0.536  1.00  0.00     0.196 A 
ATOM     67  NE2 HIS A   4     -21.855 -14.304  -0.174  1.00  0.00    -0.351 N 
ATOM     68  H   UNL     1     -22.729 -14.700   0.237  1.00  0.00     0.167 HD
ENDBRANCH  62  63
ENDBRANCH  30  62
ENDBRANCH   3  30
TORSDOF 28
