REMARK SMILES CC(C)C[C@H](NC(=O)[C@H](CC(N)=O)NC(=O)[C@H](Cc1ccccc1)NC(=O)[C@@H](N)CO)C(=O)N[C@@H](CCCNC(=N)N)C(=O)N[C@@H](C)C(=O)O
REMARK SMILES IDX 7 1 8 2 6 3 9 5 14 6 15 7 16 8 17 10 25 11 26 12 27 13 28 15
REMARK SMILES IDX 29 16 30 19 31 20 18 22 19 23 20 24 24 25 21 26 23 27 22 28
REMARK SMILES IDX 10 29 11 30 12 31 13 32 5 35 32 36 34 37 33 38 35 40 43 41
REMARK SMILES IDX 45 42 44 43 46 45 47 46 48 47 49 48 50 49 36 51 37 52 38 53
REMARK SMILES IDX 39 54 40 55 42 56 41 60 4 62 2 63 1 64 3 65
REMARK H PARENT 6 4 14 9 25 14 29 17 29 18 31 21 12 33 12 34 34 39 45 44 50 50
REMARK H PARENT 39 57 42 58 42 59 41 61
ROOT
ATOM      1  C   ASN A   3     -18.388 -10.524  -4.871  1.00  0.00     0.243 C 
ATOM      2  O   ASN A   3     -18.746 -11.390  -5.716  1.00  0.00    -0.273 OA
ATOM      3  N   LEU A   4     -18.845 -10.572  -3.525  1.00  0.00    -0.342 N 
ATOM      4  H   UNL     1     -18.583  -9.790  -2.882  1.00  0.00     0.164 HD
ENDROOT
BRANCH   1   5
ATOM      5  CA  ASN A   3     -17.459  -9.423  -5.250  1.00  0.00     0.180 C 
BRANCH   5   6
ATOM      6  N   ASN A   3     -16.215  -9.995  -5.728  1.00  0.00    -0.342 N 
ATOM      7  C   PHE A   2     -15.259 -10.542  -4.826  1.00  0.00     0.243 C 
ATOM      8  O   PHE A   2     -15.482 -10.575  -3.585  1.00  0.00    -0.273 OA
ATOM      9  H   UNL     1     -16.026 -10.025  -6.756  1.00  0.00     0.164 HD
BRANCH   7  10
ATOM     10  CA  PHE A   2     -13.980 -11.061  -5.384  1.00  0.00     0.175 C 
BRANCH  10  11
ATOM     11  N   PHE A   2     -12.859 -10.484  -4.662  1.00  0.00    -0.343 N 
ATOM     12  C   SER A   1     -12.601  -9.082  -4.709  1.00  0.00     0.239 C 
ATOM     13  O   SER A   1     -13.365  -8.313  -5.357  1.00  0.00    -0.273 OA
ATOM     14  H   UNL     1     -12.223 -11.101  -4.106  1.00  0.00     0.164 HD
BRANCH  12  15
ATOM     15  CA  SER A   1     -11.438  -8.537  -3.934  1.00  0.00     0.167 C 
BRANCH  15  16
ATOM     16  N   SER A   1     -10.845  -7.381  -4.608  1.00  0.00    -0.318 NA
ATOM     17  H   UNL     1     -11.572  -6.651  -4.790  1.00  0.00     0.119 HD
ATOM     18  H   UNL     1     -10.477  -7.689  -5.538  1.00  0.00     0.119 HD
ENDBRANCH  15  16
BRANCH  15  19
ATOM     19  CB  SER A   1     -11.843  -8.201  -2.485  1.00  0.00     0.184 C 
BRANCH  19  20
ATOM     20  OG  SER A   1     -12.055  -6.823  -2.318  1.00  0.00    -0.394 OA
ATOM     21  H   UNL     1     -11.173  -6.417  -2.109  1.00  0.00     0.210 HD
ENDBRANCH  19  20
ENDBRANCH  15  19
ENDBRANCH  12  15
ENDBRANCH  10  11
BRANCH  10  22
ATOM     22  CB  PHE A   2     -13.967 -12.596  -5.326  1.00  0.00     0.070 C 
BRANCH  22  23
ATOM     23  CG  PHE A   2     -12.884 -13.199  -6.183  1.00  0.00    -0.045 A 
ATOM     24  CD1 PHE A   2     -12.723 -12.807  -7.526  1.00  0.00     0.004 A 
ATOM     25  CD2 PHE A   2     -12.092 -14.244  -5.682  1.00  0.00     0.004 A 
ATOM     26  CE1 PHE A   2     -11.747 -13.399  -8.324  1.00  0.00     0.000 A 
ATOM     27  CE2 PHE A   2     -11.133 -14.853  -6.495  1.00  0.00     0.000 A 
ATOM     28  CZ  PHE A   2     -10.955 -14.424  -7.811  1.00  0.00     0.000 A 
ENDBRANCH  22  23
ENDBRANCH  10  22
ENDBRANCH   7  10
ENDBRANCH   5   6
BRANCH   5  29
ATOM     29  CB  ASN A   3     -18.100  -8.507  -6.300  1.00  0.00     0.134 C 
BRANCH  29  30
ATOM     30  CG  ASN A   3     -17.501  -7.131  -6.261  1.00  0.00     0.220 C 
ATOM     31  ND2 ASN A   3     -17.961  -6.168  -5.313  1.00  0.00    -0.370 N 
ATOM     32  OD1 ASN A   3     -16.560  -6.837  -7.045  1.00  0.00    -0.275 OA
ATOM     33  H   UNL     1     -18.722  -6.405  -4.639  1.00  0.00     0.159 HD
ATOM     34  H   UNL     1     -17.533  -5.216  -5.279  1.00  0.00     0.159 HD
ENDBRANCH  29  30
ENDBRANCH   5  29
ENDBRANCH   1   5
BRANCH   3  35
ATOM     35  CA  LEU A   4     -19.815 -11.541  -3.056  1.00  0.00     0.171 C 
BRANCH  35  36
ATOM     36  C   LEU A   4     -21.170 -11.059  -3.463  1.00  0.00     0.243 C 
ATOM     37  N   ARG A   5     -21.507 -11.139  -4.842  1.00  0.00    -0.343 N 
ATOM     38  O   LEU A   4     -21.972 -10.549  -2.633  1.00  0.00    -0.273 OA
ATOM     39  H   UNL     1     -21.061 -11.896  -5.406  1.00  0.00     0.164 HD
BRANCH  37  40
ATOM     40  CA  ARG A   5     -22.683 -10.495  -5.385  1.00  0.00     0.171 C 
BRANCH  40  41
ATOM     41  C   ARG A   5     -23.902 -11.193  -4.882  1.00  0.00     0.243 C 
ATOM     42  N   ALA A   6     -24.984 -10.404  -4.413  1.00  0.00    -0.341 N 
ATOM     43  O   ARG A   5     -23.970 -12.454  -4.870  1.00  0.00    -0.273 OA
ATOM     44  H   UNL     1     -24.922  -9.363  -4.494  1.00  0.00     0.164 HD
BRANCH  42  45
ATOM     45  CA  ALA A   6     -26.196 -11.003  -3.874  1.00  0.00     0.189 C 
ATOM     46  CB  ALA A   6     -26.948  -9.970  -3.039  1.00  0.00     0.043 C 
BRANCH  45  47
ATOM     47  C   ALA A   6     -27.061 -11.517  -4.990  1.00  0.00     0.325 C 
ATOM     48  O   ALA A   6     -27.145 -10.889  -6.080  1.00  0.00    -0.250 OA
BRANCH  47  49
ATOM     49  OXT ALA A   6     -27.808 -12.676  -4.802  1.00  0.00    -0.480 OA
ATOM     50  H   UNL     1     -28.408 -13.033  -5.536  1.00  0.00     0.296 HD
ENDBRANCH  47  49
ENDBRANCH  45  47
ENDBRANCH  42  45
ENDBRANCH  40  41
BRANCH  40  51
ATOM     51  CB  ARG A   5     -22.652 -10.517  -6.915  1.00  0.00     0.037 C 
BRANCH  51  52
ATOM     52  CG  ARG A   5     -21.463  -9.717  -7.458  1.00  0.00     0.024 C 
BRANCH  52  53
ATOM     53  CD  ARG A   5     -21.603  -9.478  -8.963  1.00  0.00     0.116 C 
BRANCH  53  54
ATOM     54  NE  ARG A   5     -21.186  -8.117  -9.284  1.00  0.00    -0.357 N 
ATOM     55  CZ  ARG A   5     -20.070  -7.777 -10.102  1.00  0.00     0.185 C 
ATOM     56  NH2 ARG A   5     -19.198  -8.781 -10.617  1.00  0.00    -0.370 N 
ATOM     57  H   UNL     1     -21.768  -7.336  -8.902  1.00  0.00     0.163 HD
ATOM     58  H   UNL     1     -19.097  -9.716 -10.169  1.00  0.00     0.159 HD
ATOM     59  H   UNL     1     -18.499  -8.536 -11.354  1.00  0.00     0.159 HD
BRANCH  55  60
ATOM     60  NH1 ARG A   5     -19.850  -6.532 -10.379  1.00  0.00    -0.270 NA
ATOM     61  H   UNL     1     -19.044  -6.233 -10.972  1.00  0.00     0.191 HD
ENDBRANCH  55  60
ENDBRANCH  53  54
ENDBRANCH  52  53
ENDBRANCH  51  52
ENDBRANCH  40  51
ENDBRANCH  37  40
ENDBRANCH  35  36
BRANCH  35  62
ATOM     62  CB  LEU A   4     -19.651 -11.691  -1.535  1.00  0.00     0.038 C 
BRANCH  62  63
ATOM     63  CG  LEU A   4     -20.295 -12.955  -0.947  1.00  0.00    -0.015 C 
ATOM     64  CD1 LEU A   4     -19.611 -14.232  -1.462  1.00  0.00     0.007 C 
ATOM     65  CD2 LEU A   4     -20.194 -12.898   0.582  1.00  0.00     0.007 C 
ENDBRANCH  62  63
ENDBRANCH  35  62
ENDBRANCH   3  35
TORSDOF 26
