REMARK SMILES N=C(N)NCCC[C@H](NC(=O)CNC(=O)[C@H](CCC(=O)O)NC(=O)[C@H](Cc1ccccc1)NC(=O)[C@@H](N)CO)C(=O)N[C@@H](CC(N)=O)C(=O)O
REMARK SMILES IDX 14 1 15 2 13 3 16 5 22 6 23 7 24 8 25 10 33 11 34 12 35 13
REMARK SMILES IDX 36 15 37 16 38 19 39 20 26 22 27 23 28 24 32 25 29 26 31 27
REMARK SMILES IDX 30 28 17 29 18 30 19 31 20 32 21 33 12 35 10 36 9 37 11 38
REMARK SMILES IDX 8 40 40 41 42 42 41 43 43 45 48 46 49 47 50 48 44 50 45 51
REMARK SMILES IDX 46 52 47 53 7 56 6 57 5 58 4 59 2 60 3 61 1 65
REMARK H PARENT 13 4 22 9 33 14 37 17 37 18 39 21 21 34 9 39 42 44 50 49 46 54
REMARK H PARENT 46 55 4 62 3 63 3 64 1 66
ROOT
ATOM      1  C   GLU A   3     -18.391 -10.545  -4.851  1.00  0.00     0.243 C 
ATOM      2  O   GLU A   3     -18.760 -11.393  -5.708  1.00  0.00    -0.273 OA
ATOM      3  N   GLY A   4     -18.816 -10.637  -3.492  1.00  0.00    -0.345 N 
ATOM      4  H   UNL     1     -18.402  -9.994  -2.779  1.00  0.00     0.164 HD
ENDROOT
BRANCH   1   5
ATOM      5  CA  GLU A   3     -17.467  -9.436  -5.232  1.00  0.00     0.172 C 
BRANCH   5   6
ATOM      6  N   GLU A   3     -16.221  -9.998  -5.718  1.00  0.00    -0.342 N 
ATOM      7  C   PHE A   2     -15.259 -10.541  -4.821  1.00  0.00     0.243 C 
ATOM      8  O   PHE A   2     -15.477 -10.576  -3.579  1.00  0.00    -0.273 OA
ATOM      9  H   UNL     1     -16.033 -10.022  -6.746  1.00  0.00     0.164 HD
BRANCH   7  10
ATOM     10  CA  PHE A   2     -13.981 -11.059  -5.384  1.00  0.00     0.175 C 
BRANCH  10  11
ATOM     11  N   PHE A   2     -12.858 -10.484  -4.662  1.00  0.00    -0.343 N 
ATOM     12  C   SER A   1     -12.597  -9.082  -4.704  1.00  0.00     0.239 C 
ATOM     13  O   SER A   1     -13.355  -8.307  -5.350  1.00  0.00    -0.273 OA
ATOM     14  H   UNL     1     -12.223 -11.103  -4.107  1.00  0.00     0.164 HD
BRANCH  12  15
ATOM     15  CA  SER A   1     -11.430  -8.546  -3.931  1.00  0.00     0.167 C 
BRANCH  15  16
ATOM     16  N   SER A   1     -10.863  -7.381  -4.611  1.00  0.00    -0.318 NA
ATOM     17  H   UNL     1     -10.568  -7.671  -5.573  1.00  0.00     0.119 HD
ATOM     18  H   UNL     1      -9.982  -7.111  -4.115  1.00  0.00     0.119 HD
ENDBRANCH  15  16
BRANCH  15  19
ATOM     19  CB  SER A   1     -11.841  -8.204  -2.485  1.00  0.00     0.184 C 
BRANCH  19  20
ATOM     20  OG  SER A   1     -12.062  -6.825  -2.331  1.00  0.00    -0.394 OA
ATOM     21  H   UNL     1     -11.200  -6.420  -2.047  1.00  0.00     0.210 HD
ENDBRANCH  19  20
ENDBRANCH  15  19
ENDBRANCH  12  15
ENDBRANCH  10  11
BRANCH  10  22
ATOM     22  CB  PHE A   2     -13.967 -12.595  -5.327  1.00  0.00     0.070 C 
BRANCH  22  23
ATOM     23  CG  PHE A   2     -12.884 -13.198  -6.184  1.00  0.00    -0.045 A 
ATOM     24  CD1 PHE A   2     -12.723 -12.806  -7.526  1.00  0.00     0.004 A 
ATOM     25  CD2 PHE A   2     -12.093 -14.243  -5.682  1.00  0.00     0.004 A 
ATOM     26  CE1 PHE A   2     -11.747 -13.398  -8.324  1.00  0.00     0.000 A 
ATOM     27  CE2 PHE A   2     -11.134 -14.853  -6.495  1.00  0.00     0.000 A 
ATOM     28  CZ  PHE A   2     -10.955 -14.424  -7.811  1.00  0.00     0.000 A 
ENDBRANCH  22  23
ENDBRANCH  10  22
ENDBRANCH   7  10
ENDBRANCH   5   6
BRANCH   5  29
ATOM     29  CB  GLU A   3     -18.116  -8.527  -6.284  1.00  0.00     0.047 C 
BRANCH  29  30
ATOM     30  CG  GLU A   3     -17.522  -7.117  -6.262  1.00  0.00     0.125 C 
BRANCH  30  31
ATOM     31  CD  GLU A   3     -18.181  -6.255  -7.294  1.00  0.00     0.303 C 
ATOM     32  OE1 GLU A   3     -19.401  -5.959  -7.189  1.00  0.00    -0.252 OA
BRANCH  31  33
ATOM     33  OE2 GLU A   3     -17.432  -5.755  -8.354  1.00  0.00    -0.481 OA
ATOM     34  H   UNL     1     -17.846  -5.131  -9.036  1.00  0.00     0.296 HD
ENDBRANCH  31  33
ENDBRANCH  30  31
ENDBRANCH  29  30
ENDBRANCH   5  29
ENDBRANCH   1   5
BRANCH   3  35
ATOM     35  CA  GLY A   4     -19.836 -11.564  -3.040  1.00  0.00     0.216 C 
BRANCH  35  36
ATOM     36  C   GLY A   4     -21.163 -11.055  -3.467  1.00  0.00     0.240 C 
ATOM     37  N   ARG A   5     -21.501 -11.138  -4.845  1.00  0.00    -0.343 N 
ATOM     38  O   GLY A   4     -21.959 -10.548  -2.631  1.00  0.00    -0.273 OA
ATOM     39  H   UNL     1     -21.066 -11.906  -5.402  1.00  0.00     0.164 HD
BRANCH  37  40
ATOM     40  CA  ARG A   5     -22.678 -10.496  -5.388  1.00  0.00     0.171 C 
BRANCH  40  41
ATOM     41  C   ARG A   5     -23.896 -11.194  -4.885  1.00  0.00     0.243 C 
ATOM     42  N   ASN A   6     -24.982 -10.402  -4.433  1.00  0.00    -0.341 N 
ATOM     43  O   ARG A   5     -23.964 -12.454  -4.868  1.00  0.00    -0.273 OA
ATOM     44  H   UNL     1     -24.931  -9.364  -4.553  1.00  0.00     0.164 HD
BRANCH  42  45
ATOM     45  CA  ASN A   6     -26.189 -10.994  -3.883  1.00  0.00     0.201 C 
BRANCH  45  46
ATOM     46  C   ASN A   6     -27.052 -11.522  -4.997  1.00  0.00     0.326 C 
ATOM     47  O   ASN A   6     -27.151 -10.892  -6.084  1.00  0.00    -0.250 OA
BRANCH  46  48
ATOM     48  OXT ASN A   6     -27.773 -12.698  -4.811  1.00  0.00    -0.480 OA
ATOM     49  H   UNL     1     -28.370 -13.063  -5.543  1.00  0.00     0.296 HD
ENDBRANCH  46  48
ENDBRANCH  45  46
BRANCH  45  50
ATOM     50  CB  ASN A   6     -26.929  -9.934  -3.062  1.00  0.00     0.136 C 
BRANCH  50  51
ATOM     51  CG  ASN A   6     -28.019 -10.549  -2.252  1.00  0.00     0.220 C 
ATOM     52  ND2 ASN A   6     -27.701 -11.241  -1.053  1.00  0.00    -0.370 N 
ATOM     53  OD1 ASN A   6     -29.213 -10.484  -2.643  1.00  0.00    -0.275 OA
ATOM     54  H   UNL     1     -28.456 -11.688  -0.487  1.00  0.00     0.159 HD
ATOM     55  H   UNL     1     -26.713 -11.314  -0.724  1.00  0.00     0.159 HD
ENDBRANCH  50  51
ENDBRANCH  45  50
ENDBRANCH  42  45
ENDBRANCH  40  41
BRANCH  40  56
ATOM     56  CB  ARG A   5     -22.649 -10.517  -6.916  1.00  0.00     0.037 C 
BRANCH  56  57
ATOM     57  CG  ARG A   5     -21.462  -9.717  -7.459  1.00  0.00     0.024 C 
BRANCH  57  58
ATOM     58  CD  ARG A   5     -21.602  -9.477  -8.963  1.00  0.00     0.116 C 
BRANCH  58  59
ATOM     59  NE  ARG A   5     -21.185  -8.116  -9.283  1.00  0.00    -0.357 N 
ATOM     60  CZ  ARG A   5     -20.072  -7.778 -10.106  1.00  0.00     0.185 C 
ATOM     61  NH2 ARG A   5     -19.198  -8.782 -10.616  1.00  0.00    -0.370 N 
ATOM     62  H   UNL     1     -21.765  -7.334  -8.900  1.00  0.00     0.163 HD
ATOM     63  H   UNL     1     -18.501  -8.540 -11.355  1.00  0.00     0.159 HD
ATOM     64  H   UNL     1     -19.091  -9.712 -10.159  1.00  0.00     0.159 HD
BRANCH  60  65
ATOM     65  NH1 ARG A   5     -19.859  -6.534 -10.394  1.00  0.00    -0.270 NA
ATOM     66  H   UNL     1     -19.059  -6.237 -10.996  1.00  0.00     0.191 HD
ENDBRANCH  60  65
ENDBRANCH  58  59
ENDBRANCH  57  58
ENDBRANCH  56  57
ENDBRANCH  40  56
ENDBRANCH  37  40
ENDBRANCH  35  36
ENDBRANCH   3  35
TORSDOF 28
