REMARK SMILES CC(C)C[C@H](NC(=O)[C@H](Cc1c[nH]cn1)NC(=O)[C@H](Cc1ccccc1)NC(=O)[C@@H](N)CO)C(=O)N[C@@H](CCCNC(=N)N)C(=O)N[C@@H](CCCNC(=N)N)C(=O)O
REMARK SMILES IDX 34 1 35 2 36 3 5 5 6 6 7 7 8 8 9 10 16 11 17 12 18 13 19 15
REMARK SMILES IDX 27 16 28 17 29 18 30 20 31 21 32 24 33 25 20 27 21 28 22 29
REMARK SMILES IDX 26 30 23 31 25 32 24 33 10 34 11 35 15 36 12 37 14 38 13 39
REMARK SMILES IDX 4 41 2 42 1 43 3 44 37 45 45 46 47 47 46 48 48 50 56 51
REMARK SMILES IDX 57 52 58 53 49 55 50 56 51 57 52 58 53 59 55 60 54 64 38 66
REMARK SMILES IDX 39 67 40 68 41 69 42 70 44 71 43 75
REMARK H PARENT 36 4 6 9 16 14 27 19 31 22 31 23 33 26 13 40 47 49 58 54 52 61
REMARK H PARENT 55 62 55 63 54 65 41 72 44 73 44 74 43 76
ROOT
ATOM      1  C   LEU A   4     -21.169 -11.060  -3.464  1.00  0.00     0.243 C 
ATOM      2  O   LEU A   4     -21.972 -10.550  -2.634  1.00  0.00    -0.273 OA
ATOM      3  N   ARG A   5     -21.505 -11.139  -4.842  1.00  0.00    -0.343 N 
ATOM      4  H   UNL     1     -21.059 -11.897  -5.406  1.00  0.00     0.164 HD
ENDROOT
BRANCH   1   5
ATOM      5  CA  LEU A   4     -19.815 -11.541  -3.055  1.00  0.00     0.171 C 
BRANCH   5   6
ATOM      6  N   LEU A   4     -18.845 -10.573  -3.525  1.00  0.00    -0.342 N 
ATOM      7  C   HIS A   3     -18.388 -10.524  -4.870  1.00  0.00     0.243 C 
ATOM      8  O   HIS A   3     -18.745 -11.390  -5.716  1.00  0.00    -0.273 OA
ATOM      9  H   UNL     1     -18.582  -9.791  -2.881  1.00  0.00     0.164 HD
BRANCH   7  10
ATOM     10  CA  HIS A   3     -17.459  -9.423  -5.250  1.00  0.00     0.177 C 
BRANCH  10  11
ATOM     11  N   HIS A   3     -16.215  -9.995  -5.728  1.00  0.00    -0.342 N 
ATOM     12  C   PHE A   2     -15.259 -10.540  -4.826  1.00  0.00     0.243 C 
ATOM     13  O   PHE A   2     -15.482 -10.575  -3.585  1.00  0.00    -0.273 OA
ATOM     14  H   UNL     1     -16.026 -10.023  -6.756  1.00  0.00     0.164 HD
BRANCH  12  15
ATOM     15  CA  PHE A   2     -13.979 -11.059  -5.384  1.00  0.00     0.175 C 
BRANCH  15  16
ATOM     16  N   PHE A   2     -12.859 -10.483  -4.660  1.00  0.00    -0.343 N 
ATOM     17  C   SER A   1     -12.597  -9.081  -4.702  1.00  0.00     0.239 C 
ATOM     18  O   SER A   1     -13.355  -8.306  -5.350  1.00  0.00    -0.273 OA
ATOM     19  H   UNL     1     -12.225 -11.102  -4.105  1.00  0.00     0.164 HD
BRANCH  17  20
ATOM     20  CA  SER A   1     -11.430  -8.545  -3.930  1.00  0.00     0.167 C 
BRANCH  20  21
ATOM     21  N   SER A   1     -10.865  -7.379  -4.607  1.00  0.00    -0.318 NA
ATOM     22  H   UNL     1     -10.001  -7.090  -4.093  1.00  0.00     0.119 HD
ATOM     23  H   UNL     1     -10.544  -7.674  -5.559  1.00  0.00     0.119 HD
ENDBRANCH  20  21
BRANCH  20  24
ATOM     24  CB  SER A   1     -11.840  -8.205  -2.484  1.00  0.00     0.184 C 
BRANCH  24  25
ATOM     25  OG  SER A   1     -12.062  -6.828  -2.339  1.00  0.00    -0.394 OA
ATOM     26  H   UNL     1     -12.322  -6.688  -1.392  1.00  0.00     0.210 HD
ENDBRANCH  24  25
ENDBRANCH  20  24
ENDBRANCH  17  20
ENDBRANCH  15  16
BRANCH  15  27
ATOM     27  CB  PHE A   2     -13.967 -12.595  -5.327  1.00  0.00     0.070 C 
BRANCH  27  28
ATOM     28  CG  PHE A   2     -12.884 -13.198  -6.184  1.00  0.00    -0.045 A 
ATOM     29  CD1 PHE A   2     -12.723 -12.806  -7.526  1.00  0.00     0.004 A 
ATOM     30  CD2 PHE A   2     -12.092 -14.243  -5.682  1.00  0.00     0.004 A 
ATOM     31  CE1 PHE A   2     -11.747 -13.399  -8.324  1.00  0.00     0.000 A 
ATOM     32  CE2 PHE A   2     -11.134 -14.853  -6.495  1.00  0.00     0.000 A 
ATOM     33  CZ  PHE A   2     -10.955 -14.424  -7.811  1.00  0.00     0.000 A 
ENDBRANCH  27  28
ENDBRANCH  15  27
ENDBRANCH  12  15
ENDBRANCH  10  11
BRANCH  10  34
ATOM     34  CB  HIS A   3     -18.101  -8.506  -6.298  1.00  0.00     0.093 C 
BRANCH  34  35
ATOM     35  CG  HIS A   3     -17.498  -7.134  -6.262  1.00  0.00     0.061 A 
ATOM     36  ND1 HIS A   3     -16.395  -6.781  -6.953  1.00  0.00    -0.242 NA
ATOM     37  CD2 HIS A   3     -17.908  -6.088  -5.466  1.00  0.00     0.107 A 
ATOM     38  CE1 HIS A   3     -16.170  -5.506  -6.571  1.00  0.00     0.196 A 
ATOM     39  NE2 HIS A   3     -17.069  -5.063  -5.672  1.00  0.00    -0.351 N 
ATOM     40  H   UNL     1     -17.100  -4.122  -5.221  1.00  0.00     0.167 HD
ENDBRANCH  34  35
ENDBRANCH  10  34
ENDBRANCH   7  10
ENDBRANCH   5   6
BRANCH   5  41
ATOM     41  CB  LEU A   4     -19.652 -11.691  -1.535  1.00  0.00     0.038 C 
BRANCH  41  42
ATOM     42  CG  LEU A   4     -20.296 -12.955  -0.947  1.00  0.00    -0.015 C 
ATOM     43  CD1 LEU A   4     -19.611 -14.232  -1.462  1.00  0.00     0.007 C 
ATOM     44  CD2 LEU A   4     -20.195 -12.898   0.582  1.00  0.00     0.007 C 
ENDBRANCH  41  42
ENDBRANCH   5  41
ENDBRANCH   1   5
BRANCH   3  45
ATOM     45  CA  ARG A   5     -22.680 -10.496  -5.387  1.00  0.00     0.171 C 
BRANCH  45  46
ATOM     46  C   ARG A   5     -23.897 -11.194  -4.885  1.00  0.00     0.243 C 
ATOM     47  N   ARG A   6     -24.982 -10.405  -4.428  1.00  0.00    -0.341 N 
ATOM     48  O   ARG A   5     -23.963 -12.455  -4.869  1.00  0.00    -0.273 OA
ATOM     49  H   UNL     1     -24.936  -9.366  -4.543  1.00  0.00     0.164 HD
BRANCH  47  50
ATOM     50  CA  ARG A   6     -26.187 -11.007  -3.883  1.00  0.00     0.192 C 
BRANCH  50  51
ATOM     51  C   ARG A   6     -27.043 -11.530  -5.005  1.00  0.00     0.326 C 
ATOM     52  O   ARG A   6     -27.157 -10.883  -6.080  1.00  0.00    -0.250 OA
BRANCH  51  53
ATOM     53  OXT ARG A   6     -27.718 -12.738  -4.851  1.00  0.00    -0.480 OA
ATOM     54  H   UNL     1     -28.302 -13.105  -5.593  1.00  0.00     0.296 HD
ENDBRANCH  51  53
ENDBRANCH  50  51
BRANCH  50  55
ATOM     55  CB  ARG A   6     -26.931  -9.961  -3.040  1.00  0.00     0.039 C 
BRANCH  55  56
ATOM     56  CG  ARG A   6     -28.073 -10.562  -2.204  1.00  0.00     0.024 C 
BRANCH  56  57
ATOM     57  CD  ARG A   6     -27.634 -11.013  -0.801  1.00  0.00     0.116 C 
BRANCH  57  58
ATOM     58  NE  ARG A   6     -26.707 -12.141  -0.856  1.00  0.00    -0.357 N 
ATOM     59  CZ  ARG A   6     -27.111 -13.476  -1.198  1.00  0.00     0.185 C 
ATOM     60  NH2 ARG A   6     -26.125 -14.504  -1.312  1.00  0.00    -0.370 N 
ATOM     61  H   UNL     1     -25.707 -11.971  -0.603  1.00  0.00     0.163 HD
ATOM     62  H   UNL     1     -25.115 -14.287  -1.159  1.00  0.00     0.159 HD
ATOM     63  H   UNL     1     -26.395 -15.482  -1.559  1.00  0.00     0.159 HD
BRANCH  59  64
ATOM     64  NH1 ARG A   6     -28.361 -13.750  -1.402  1.00  0.00    -0.270 NA
ATOM     65  H   UNL     1     -28.678 -14.713  -1.653  1.00  0.00     0.191 HD
ENDBRANCH  59  64
ENDBRANCH  57  58
ENDBRANCH  56  57
ENDBRANCH  55  56
ENDBRANCH  50  55
ENDBRANCH  47  50
ENDBRANCH  45  46
BRANCH  45  66
ATOM     66  CB  ARG A   5     -22.649 -10.517  -6.916  1.00  0.00     0.037 C 
BRANCH  66  67
ATOM     67  CG  ARG A   5     -21.462  -9.716  -7.459  1.00  0.00     0.024 C 
BRANCH  67  68
ATOM     68  CD  ARG A   5     -21.602  -9.478  -8.963  1.00  0.00     0.116 C 
BRANCH  68  69
ATOM     69  NE  ARG A   5     -21.186  -8.116  -9.284  1.00  0.00    -0.357 N 
ATOM     70  CZ  ARG A   5     -20.069  -7.777 -10.102  1.00  0.00     0.185 C 
ATOM     71  NH2 ARG A   5     -19.198  -8.781 -10.617  1.00  0.00    -0.370 N 
ATOM     72  H   UNL     1     -21.767  -7.335  -8.902  1.00  0.00     0.163 HD
ATOM     73  H   UNL     1     -19.097  -9.716 -10.169  1.00  0.00     0.159 HD
ATOM     74  H   UNL     1     -18.499  -8.536 -11.353  1.00  0.00     0.159 HD
BRANCH  70  75
ATOM     75  NH1 ARG A   5     -19.849  -6.531 -10.378  1.00  0.00    -0.270 NA
ATOM     76  H   UNL     1     -19.043  -6.232 -10.972  1.00  0.00     0.191 HD
ENDBRANCH  70  75
ENDBRANCH  68  69
ENDBRANCH  67  68
ENDBRANCH  66  67
ENDBRANCH  45  66
ENDBRANCH   3  45
TORSDOF 31
