REMARK SMILES CC(C)C[C@H](NC(=O)[C@H](CCC(N)=O)NC(=O)[C@H](Cc1ccccc1)NC(=O)[C@@H](N)CO)C(=O)N[C@@H](CCCNC(=N)N)C(=O)N[C@@H](CO)C(=O)O
REMARK SMILES IDX 7 1 8 2 6 3 9 5 15 6 16 7 17 8 18 10 26 11 27 12 28 13 29 15
REMARK SMILES IDX 30 16 31 19 32 20 19 22 20 23 21 24 25 25 22 26 24 27 23 28
REMARK SMILES IDX 10 29 11 30 12 31 13 32 14 33 5 36 33 37 35 38 34 39 36 41
REMARK SMILES IDX 44 42 46 43 45 44 47 46 50 47 51 48 52 49 48 51 49 52 37 54
REMARK SMILES IDX 38 55 39 56 40 57 41 58 43 59 42 63 4 65 2 66 1 67 3 68
REMARK H PARENT 6 4 15 9 26 14 30 17 30 18 32 21 13 34 13 35 35 40 46 45 52 50
REMARK H PARENT 49 53 40 60 43 61 43 62 42 64
ROOT
ATOM      1  C   GLN A   3     -18.385 -10.531  -4.868  1.00  0.00     0.243 C 
ATOM      2  O   GLN A   3     -18.745 -11.395  -5.713  1.00  0.00    -0.273 OA
ATOM      3  N   LEU A   4     -18.845 -10.575  -3.524  1.00  0.00    -0.343 N 
ATOM      4  H   UNL     1     -18.585  -9.791  -2.882  1.00  0.00     0.164 HD
ENDROOT
BRANCH   1   5
ATOM      5  CA  GLN A   3     -17.458  -9.430  -5.248  1.00  0.00     0.171 C 
BRANCH   5   6
ATOM      6  N   GLN A   3     -16.214  -9.999  -5.728  1.00  0.00    -0.342 N 
ATOM      7  C   PHE A   2     -15.257 -10.542  -4.826  1.00  0.00     0.243 C 
ATOM      8  O   PHE A   2     -15.480 -10.575  -3.584  1.00  0.00    -0.273 OA
ATOM      9  H   UNL     1     -16.023 -10.025  -6.756  1.00  0.00     0.164 HD
BRANCH   7  10
ATOM     10  CA  PHE A   2     -13.978 -11.060  -5.383  1.00  0.00     0.175 C 
BRANCH  10  11
ATOM     11  N   PHE A   2     -12.857 -10.482  -4.660  1.00  0.00    -0.343 N 
ATOM     12  C   SER A   1     -12.599  -9.080  -4.706  1.00  0.00     0.239 C 
ATOM     13  O   SER A   1     -13.360  -8.310  -5.356  1.00  0.00    -0.273 OA
ATOM     14  H   UNL     1     -12.223 -11.100  -4.103  1.00  0.00     0.164 HD
BRANCH  12  15
ATOM     15  CA  SER A   1     -11.438  -8.536  -3.930  1.00  0.00     0.167 C 
BRANCH  15  16
ATOM     16  N   SER A   1     -10.850  -7.388  -4.623  1.00  0.00    -0.318 NA
ATOM     17  H   UNL     1     -10.030  -7.044  -4.072  1.00  0.00     0.119 HD
ATOM     18  H   UNL     1     -11.541  -6.606  -4.694  1.00  0.00     0.119 HD
ENDBRANCH  15  16
BRANCH  15  19
ATOM     19  CB  SER A   1     -11.842  -8.203  -2.479  1.00  0.00     0.184 C 
BRANCH  19  20
ATOM     20  OG  SER A   1     -12.063  -6.828  -2.319  1.00  0.00    -0.394 OA
ATOM     21  H   UNL     1     -12.320  -6.698  -1.369  1.00  0.00     0.210 HD
ENDBRANCH  19  20
ENDBRANCH  15  19
ENDBRANCH  12  15
ENDBRANCH  10  11
BRANCH  10  22
ATOM     22  CB  PHE A   2     -13.965 -12.595  -5.326  1.00  0.00     0.070 C 
BRANCH  22  23
ATOM     23  CG  PHE A   2     -12.883 -13.199  -6.183  1.00  0.00    -0.045 A 
ATOM     24  CD1 PHE A   2     -12.723 -12.807  -7.526  1.00  0.00     0.004 A 
ATOM     25  CD2 PHE A   2     -12.092 -14.244  -5.682  1.00  0.00     0.004 A 
ATOM     26  CE1 PHE A   2     -11.747 -13.399  -8.324  1.00  0.00     0.000 A 
ATOM     27  CE2 PHE A   2     -11.133 -14.853  -6.495  1.00  0.00     0.000 A 
ATOM     28  CZ  PHE A   2     -10.955 -14.424  -7.811  1.00  0.00     0.000 A 
ENDBRANCH  22  23
ENDBRANCH  10  22
ENDBRANCH   7  10
ENDBRANCH   5   6
BRANCH   5  29
ATOM     29  CB  GLN A   3     -18.106  -8.523  -6.298  1.00  0.00     0.045 C 
BRANCH  29  30
ATOM     30  CG  GLN A   3     -17.520  -7.110  -6.267  1.00  0.00     0.102 C 
BRANCH  30  31
ATOM     31  CD  GLN A   3     -18.190  -6.257  -7.301  1.00  0.00     0.217 C 
ATOM     32  NE2 GLN A   3     -19.512  -5.764  -7.085  1.00  0.00    -0.370 N 
ATOM     33  OE1 GLN A   3     -17.588  -5.985  -8.373  1.00  0.00    -0.275 OA
ATOM     34  H   UNL     1     -20.029  -5.991  -6.206  1.00  0.00     0.159 HD
ATOM     35  H   UNL     1     -19.978  -5.170  -7.806  1.00  0.00     0.159 HD
ENDBRANCH  30  31
ENDBRANCH  29  30
ENDBRANCH   5  29
ENDBRANCH   1   5
BRANCH   3  36
ATOM     36  CA  LEU A   4     -19.816 -11.542  -3.054  1.00  0.00     0.171 C 
BRANCH  36  37
ATOM     37  C   LEU A   4     -21.170 -11.059  -3.463  1.00  0.00     0.243 C 
ATOM     38  N   ARG A   5     -21.507 -11.139  -4.842  1.00  0.00    -0.343 N 
ATOM     39  O   LEU A   4     -21.972 -10.549  -2.633  1.00  0.00    -0.273 OA
ATOM     40  H   UNL     1     -21.061 -11.896  -5.406  1.00  0.00     0.164 HD
BRANCH  38  41
ATOM     41  CA  ARG A   5     -22.683 -10.495  -5.386  1.00  0.00     0.171 C 
BRANCH  41  42
ATOM     42  C   ARG A   5     -23.901 -11.194  -4.882  1.00  0.00     0.243 C 
ATOM     43  N   SER A   6     -24.985 -10.404  -4.416  1.00  0.00    -0.339 N 
ATOM     44  O   ARG A   5     -23.969 -12.454  -4.869  1.00  0.00    -0.273 OA
ATOM     45  H   UNL     1     -24.927  -9.364  -4.510  1.00  0.00     0.164 HD
BRANCH  43  46
ATOM     46  CA  SER A   6     -26.195 -11.002  -3.874  1.00  0.00     0.218 C 
BRANCH  46  47
ATOM     47  C   SER A   6     -27.061 -11.517  -4.990  1.00  0.00     0.328 C 
ATOM     48  O   SER A   6     -27.145 -10.889  -6.080  1.00  0.00    -0.250 OA
BRANCH  47  49
ATOM     49  OXT SER A   6     -27.808 -12.676  -4.801  1.00  0.00    -0.480 OA
ATOM     50  H   UNL     1     -28.408 -13.032  -5.535  1.00  0.00     0.296 HD
ENDBRANCH  47  49
ENDBRANCH  46  47
BRANCH  46  51
ATOM     51  CB  SER A   6     -26.950  -9.970  -3.036  1.00  0.00     0.193 C 
BRANCH  51  52
ATOM     52  OG  SER A   6     -26.148  -9.546  -1.968  1.00  0.00    -0.394 OA
ATOM     53  H   UNL     1     -26.685  -8.876  -1.469  1.00  0.00     0.210 HD
ENDBRANCH  51  52
ENDBRANCH  46  51
ENDBRANCH  43  46
ENDBRANCH  41  42
BRANCH  41  54
ATOM     54  CB  ARG A   5     -22.652 -10.516  -6.915  1.00  0.00     0.037 C 
BRANCH  54  55
ATOM     55  CG  ARG A   5     -21.463  -9.716  -7.457  1.00  0.00     0.024 C 
BRANCH  55  56
ATOM     56  CD  ARG A   5     -21.602  -9.477  -8.962  1.00  0.00     0.116 C 
BRANCH  56  57
ATOM     57  NE  ARG A   5     -21.185  -8.116  -9.282  1.00  0.00    -0.357 N 
ATOM     58  CZ  ARG A   5     -20.072  -7.777 -10.106  1.00  0.00     0.185 C 
ATOM     59  NH2 ARG A   5     -19.198  -8.781 -10.615  1.00  0.00    -0.370 N 
ATOM     60  H   UNL     1     -21.763  -7.334  -8.898  1.00  0.00     0.163 HD
ATOM     61  H   UNL     1     -19.092  -9.712 -10.160  1.00  0.00     0.159 HD
ATOM     62  H   UNL     1     -18.500  -8.539 -11.354  1.00  0.00     0.159 HD
BRANCH  58  63
ATOM     63  NH1 ARG A   5     -19.857  -6.533 -10.391  1.00  0.00    -0.270 NA
ATOM     64  H   UNL     1     -19.054  -6.235 -10.989  1.00  0.00     0.191 HD
ENDBRANCH  58  63
ENDBRANCH  56  57
ENDBRANCH  55  56
ENDBRANCH  54  55
ENDBRANCH  41  54
ENDBRANCH  38  41
ENDBRANCH  36  37
BRANCH  36  65
ATOM     65  CB  LEU A   4     -19.653 -11.691  -1.534  1.00  0.00     0.038 C 
BRANCH  65  66
ATOM     66  CG  LEU A   4     -20.296 -12.956  -0.946  1.00  0.00    -0.015 C 
ATOM     67  CD1 LEU A   4     -19.611 -14.232  -1.462  1.00  0.00     0.007 C 
ATOM     68  CD2 LEU A   4     -20.194 -12.898   0.583  1.00  0.00     0.007 C 
ENDBRANCH  65  66
ENDBRANCH  36  65
ENDBRANCH   3  36
TORSDOF 29
