REMARK SMILES CC(C)C[C@H](NC(=O)[C@H](CC(N)=O)NC(=O)[C@H](Cc1ccccc1)NC(=O)[C@@H](N)CO)C(=O)N[C@@H](CCCNC(=N)N)C(=O)N[C@@H](CCCCN)C(=O)O
REMARK SMILES IDX 32 1 33 2 34 3 5 5 6 6 7 7 8 8 9 10 14 11 15 12 16 13 17 15
REMARK SMILES IDX 25 16 26 17 27 18 28 20 29 21 30 24 31 25 18 27 19 28 20 29
REMARK SMILES IDX 24 30 21 31 23 32 22 33 10 34 11 35 12 36 13 37 4 40 2 41
REMARK SMILES IDX 1 42 3 43 35 44 43 45 45 46 44 47 46 49 52 50 53 51 54 52
REMARK SMILES IDX 47 54 48 55 49 56 50 57 51 58 36 61 37 62 38 63 39 64 40 65
REMARK SMILES IDX 42 66 41 70
REMARK H PARENT 34 4 6 9 14 14 25 19 29 22 29 23 31 26 12 38 12 39 45 48 54 53
REMARK H PARENT 51 59 51 60 39 67 42 68 42 69 41 71
ROOT
ATOM      1  C   LEU A   4     -21.169 -11.059  -3.464  1.00  0.00     0.243 C 
ATOM      2  O   LEU A   4     -21.971 -10.550  -2.634  1.00  0.00    -0.273 OA
ATOM      3  N   ARG A   5     -21.505 -11.139  -4.842  1.00  0.00    -0.343 N 
ATOM      4  H   UNL     1     -21.059 -11.897  -5.406  1.00  0.00     0.164 HD
ENDROOT
BRANCH   1   5
ATOM      5  CA  LEU A   4     -19.815 -11.541  -3.055  1.00  0.00     0.171 C 
BRANCH   5   6
ATOM      6  N   LEU A   4     -18.845 -10.572  -3.525  1.00  0.00    -0.342 N 
ATOM      7  C   ASN A   3     -18.388 -10.524  -4.870  1.00  0.00     0.243 C 
ATOM      8  O   ASN A   3     -18.745 -11.390  -5.716  1.00  0.00    -0.273 OA
ATOM      9  H   UNL     1     -18.582  -9.790  -2.881  1.00  0.00     0.164 HD
BRANCH   7  10
ATOM     10  CA  ASN A   3     -17.459  -9.423  -5.250  1.00  0.00     0.180 C 
BRANCH  10  11
ATOM     11  N   ASN A   3     -16.215  -9.995  -5.729  1.00  0.00    -0.342 N 
ATOM     12  C   PHE A   2     -15.258 -10.540  -4.826  1.00  0.00     0.243 C 
ATOM     13  O   PHE A   2     -15.482 -10.575  -3.585  1.00  0.00    -0.273 OA
ATOM     14  H   UNL     1     -16.026 -10.024  -6.757  1.00  0.00     0.164 HD
BRANCH  12  15
ATOM     15  CA  PHE A   2     -13.979 -11.059  -5.384  1.00  0.00     0.175 C 
BRANCH  15  16
ATOM     16  N   PHE A   2     -12.859 -10.484  -4.659  1.00  0.00    -0.343 N 
ATOM     17  C   SER A   1     -12.597  -9.082  -4.702  1.00  0.00     0.239 C 
ATOM     18  O   SER A   1     -13.355  -8.307  -5.350  1.00  0.00    -0.273 OA
ATOM     19  H   UNL     1     -12.225 -11.103  -4.104  1.00  0.00     0.164 HD
BRANCH  17  20
ATOM     20  CA  SER A   1     -11.429  -8.546  -3.932  1.00  0.00     0.167 C 
BRANCH  20  21
ATOM     21  N   SER A   1     -10.863  -7.381  -4.610  1.00  0.00    -0.318 NA
ATOM     22  H   UNL     1     -10.000  -7.090  -4.094  1.00  0.00     0.119 HD
ATOM     23  H   UNL     1     -10.541  -7.677  -5.561  1.00  0.00     0.119 HD
ENDBRANCH  20  21
BRANCH  20  24
ATOM     24  CB  SER A   1     -11.840  -8.203  -2.486  1.00  0.00     0.184 C 
BRANCH  24  25
ATOM     25  OG  SER A   1     -12.064  -6.827  -2.332  1.00  0.00    -0.394 OA
ATOM     26  H   UNL     1     -12.954  -6.643  -2.733  1.00  0.00     0.210 HD
ENDBRANCH  24  25
ENDBRANCH  20  24
ENDBRANCH  17  20
ENDBRANCH  15  16
BRANCH  15  27
ATOM     27  CB  PHE A   2     -13.967 -12.595  -5.327  1.00  0.00     0.070 C 
BRANCH  27  28
ATOM     28  CG  PHE A   2     -12.884 -13.198  -6.184  1.00  0.00    -0.045 A 
ATOM     29  CD1 PHE A   2     -12.723 -12.806  -7.526  1.00  0.00     0.004 A 
ATOM     30  CD2 PHE A   2     -12.092 -14.243  -5.682  1.00  0.00     0.004 A 
ATOM     31  CE1 PHE A   2     -11.747 -13.399  -8.324  1.00  0.00     0.000 A 
ATOM     32  CE2 PHE A   2     -11.134 -14.853  -6.495  1.00  0.00     0.000 A 
ATOM     33  CZ  PHE A   2     -10.955 -14.424  -7.811  1.00  0.00     0.000 A 
ENDBRANCH  27  28
ENDBRANCH  15  27
ENDBRANCH  12  15
ENDBRANCH  10  11
BRANCH  10  34
ATOM     34  CB  ASN A   3     -18.100  -8.507  -6.299  1.00  0.00     0.134 C 
BRANCH  34  35
ATOM     35  CG  ASN A   3     -17.501  -7.131  -6.261  1.00  0.00     0.220 C 
ATOM     36  ND2 ASN A   3     -17.960  -6.168  -5.313  1.00  0.00    -0.370 N 
ATOM     37  OD1 ASN A   3     -16.560  -6.837  -7.045  1.00  0.00    -0.275 OA
ATOM     38  H   UNL     1     -18.721  -6.405  -4.638  1.00  0.00     0.159 HD
ATOM     39  H   UNL     1     -17.532  -5.216  -5.279  1.00  0.00     0.159 HD
ENDBRANCH  34  35
ENDBRANCH  10  34
ENDBRANCH   7  10
ENDBRANCH   5   6
BRANCH   5  40
ATOM     40  CB  LEU A   4     -19.651 -11.691  -1.535  1.00  0.00     0.038 C 
BRANCH  40  41
ATOM     41  CG  LEU A   4     -20.295 -12.955  -0.947  1.00  0.00    -0.015 C 
ATOM     42  CD1 LEU A   4     -19.611 -14.232  -1.462  1.00  0.00     0.007 C 
ATOM     43  CD2 LEU A   4     -20.194 -12.898   0.582  1.00  0.00     0.007 C 
ENDBRANCH  40  41
ENDBRANCH   5  40
ENDBRANCH   1   5
BRANCH   3  44
ATOM     44  CA  ARG A   5     -22.680 -10.496  -5.387  1.00  0.00     0.171 C 
BRANCH  44  45
ATOM     45  C   ARG A   5     -23.897 -11.195  -4.885  1.00  0.00     0.243 C 
ATOM     46  N   LYS A   6     -24.982 -10.406  -4.427  1.00  0.00    -0.341 N 
ATOM     47  O   ARG A   5     -23.964 -12.455  -4.870  1.00  0.00    -0.273 OA
ATOM     48  H   UNL     1     -24.933  -9.366  -4.538  1.00  0.00     0.164 HD
BRANCH  46  49
ATOM     49  CA  LYS A   6     -26.189 -11.006  -3.883  1.00  0.00     0.192 C 
BRANCH  49  50
ATOM     50  C   LYS A   6     -27.043 -11.530  -5.004  1.00  0.00     0.326 C 
ATOM     51  O   LYS A   6     -27.157 -10.883  -6.079  1.00  0.00    -0.250 OA
BRANCH  50  52
ATOM     52  OXT LYS A   6     -27.717 -12.737  -4.847  1.00  0.00    -0.480 OA
ATOM     53  H   UNL     1     -28.304 -13.104  -5.588  1.00  0.00     0.296 HD
ENDBRANCH  50  52
ENDBRANCH  49  50
BRANCH  49  54
ATOM     54  CB  LYS A   6     -26.927  -9.960  -3.035  1.00  0.00     0.037 C 
BRANCH  54  55
ATOM     55  CG  LYS A   6     -28.076 -10.563  -2.212  1.00  0.00     0.004 C 
BRANCH  55  56
ATOM     56  CD  LYS A   6     -29.440 -10.398  -2.900  1.00  0.00     0.015 C 
BRANCH  56  57
ATOM     57  CE  LYS A   6     -30.561 -11.022  -2.056  1.00  0.00     0.077 C 
BRANCH  57  58
ATOM     58  NZ  LYS A   6     -31.863 -10.863  -2.701  1.00  0.00    -0.330 NA
ATOM     59  H   UNL     1     -31.831 -11.317  -3.643  1.00  0.00     0.118 HD
ATOM     60  H   UNL     1     -32.047  -9.843  -2.845  1.00  0.00     0.118 HD
ENDBRANCH  57  58
ENDBRANCH  56  57
ENDBRANCH  55  56
ENDBRANCH  54  55
ENDBRANCH  49  54
ENDBRANCH  46  49
ENDBRANCH  44  45
BRANCH  44  61
ATOM     61  CB  ARG A   5     -22.650 -10.517  -6.916  1.00  0.00     0.037 C 
BRANCH  61  62
ATOM     62  CG  ARG A   5     -21.462  -9.716  -7.459  1.00  0.00     0.024 C 
BRANCH  62  63
ATOM     63  CD  ARG A   5     -21.602  -9.478  -8.963  1.00  0.00     0.116 C 
BRANCH  63  64
ATOM     64  NE  ARG A   5     -21.186  -8.116  -9.284  1.00  0.00    -0.357 N 
ATOM     65  CZ  ARG A   5     -20.070  -7.777 -10.102  1.00  0.00     0.185 C 
ATOM     66  NH2 ARG A   5     -19.198  -8.781 -10.617  1.00  0.00    -0.370 N 
ATOM     67  H   UNL     1     -21.768  -7.335  -8.902  1.00  0.00     0.163 HD
ATOM     68  H   UNL     1     -18.499  -8.536 -11.354  1.00  0.00     0.159 HD
ATOM     69  H   UNL     1     -19.097  -9.716 -10.169  1.00  0.00     0.159 HD
BRANCH  65  70
ATOM     70  NH1 ARG A   5     -19.849  -6.531 -10.379  1.00  0.00    -0.270 NA
ATOM     71  H   UNL     1     -19.044  -6.233 -10.972  1.00  0.00     0.191 HD
ENDBRANCH  65  70
ENDBRANCH  63  64
ENDBRANCH  62  63
ENDBRANCH  61  62
ENDBRANCH  44  61
ENDBRANCH   3  44
TORSDOF 31
