REMARK SMILES CC(C)C[C@H](NC(=O)[C@H](Cc1c[nH]cn1)NC(=O)[C@H](Cc1ccccc1)NC(=O)[C@@H](N)Cc1c[nH]cn1)C(=O)N[C@@H](CCCNC(=N)N)C(=O)N[C@@H](CC(N)=O)C(=O)O
REMARK SMILES IDX 7 1 8 2 6 3 9 5 16 6 17 7 18 8 19 10 27 11 28 12 29 13 30 15
REMARK SMILES IDX 31 16 32 19 33 20 37 21 34 22 36 23 35 24 20 26 21 27 22 28
REMARK SMILES IDX 26 29 23 30 25 31 24 32 10 33 11 34 15 35 12 36 14 37 13 38
REMARK SMILES IDX 5 40 38 41 40 42 39 43 41 45 49 46 51 47 50 48 52 50 57 51
REMARK SMILES IDX 58 52 59 53 53 55 54 56 55 57 56 58 42 61 43 62 44 63 45 64
REMARK SMILES IDX 46 65 48 66 47 70 4 72 2 73 1 74 3 75
REMARK H PARENT 6 4 16 9 27 14 31 17 31 18 35 25 13 39 40 44 51 49 59 54 55 59
REMARK H PARENT 55 60 45 67 48 68 48 69 47 71
ROOT
ATOM      1  C   HIS A   3     -18.388 -10.524  -4.871  1.00  0.00     0.243 C 
ATOM      2  O   HIS A   3     -18.746 -11.389  -5.716  1.00  0.00    -0.273 OA
ATOM      3  N   LEU A   4     -18.845 -10.573  -3.525  1.00  0.00    -0.342 N 
ATOM      4  H   UNL     1     -18.582  -9.790  -2.881  1.00  0.00     0.164 HD
ENDROOT
BRANCH   1   5
ATOM      5  CA  HIS A   3     -17.458  -9.424  -5.249  1.00  0.00     0.177 C 
BRANCH   5   6
ATOM      6  N   HIS A   3     -16.214  -9.996  -5.728  1.00  0.00    -0.342 N 
ATOM      7  C   PHE A   2     -15.257 -10.541  -4.826  1.00  0.00     0.243 C 
ATOM      8  O   PHE A   2     -15.480 -10.575  -3.584  1.00  0.00    -0.273 OA
ATOM      9  H   UNL     1     -16.025 -10.024  -6.756  1.00  0.00     0.164 HD
BRANCH   7  10
ATOM     10  CA  PHE A   2     -13.979 -11.062  -5.384  1.00  0.00     0.175 C 
BRANCH  10  11
ATOM     11  N   PHE A   2     -12.855 -10.489  -4.663  1.00  0.00    -0.343 N 
ATOM     12  C   HIS A   1     -12.591  -9.090  -4.717  1.00  0.00     0.237 C 
ATOM     13  O   HIS A   1     -13.347  -8.320  -5.373  1.00  0.00    -0.273 OA
ATOM     14  H   UNL     1     -12.223 -11.106  -4.102  1.00  0.00     0.164 HD
BRANCH  12  15
ATOM     15  CA  HIS A   1     -11.446  -8.538  -3.921  1.00  0.00     0.147 C 
BRANCH  15  16
ATOM     16  N   HIS A   1     -10.893  -7.356  -4.580  1.00  0.00    -0.320 NA
ATOM     17  H   UNL     1     -10.529  -7.643  -5.518  1.00  0.00     0.119 HD
ATOM     18  H   UNL     1     -10.060  -7.034  -4.035  1.00  0.00     0.119 HD
ENDBRANCH  15  16
BRANCH  15  19
ATOM     19  CB  HIS A   1     -11.898  -8.207  -2.487  1.00  0.00     0.086 C 
BRANCH  19  20
ATOM     20  CG  HIS A   1     -13.054  -7.245  -2.457  1.00  0.00     0.060 A 
ATOM     21  ND1 HIS A   1     -14.347  -7.628  -2.436  1.00  0.00    -0.242 NA
ATOM     22  CD2 HIS A   1     -12.974  -5.876  -2.582  1.00  0.00     0.107 A 
ATOM     23  CE1 HIS A   1     -15.031  -6.468  -2.533  1.00  0.00     0.196 A 
ATOM     24  NE2 HIS A   1     -14.225  -5.393  -2.624  1.00  0.00    -0.351 N 
ATOM     25  H   UNL     1     -14.514  -4.395  -2.725  1.00  0.00     0.167 HD
ENDBRANCH  19  20
ENDBRANCH  15  19
ENDBRANCH  12  15
ENDBRANCH  10  11
BRANCH  10  26
ATOM     26  CB  PHE A   2     -13.968 -12.597  -5.327  1.00  0.00     0.070 C 
BRANCH  26  27
ATOM     27  CG  PHE A   2     -12.884 -13.200  -6.184  1.00  0.00    -0.045 A 
ATOM     28  CD1 PHE A   2     -12.723 -12.808  -7.527  1.00  0.00     0.004 A 
ATOM     29  CD2 PHE A   2     -12.092 -14.244  -5.682  1.00  0.00     0.004 A 
ATOM     30  CE1 PHE A   2     -11.747 -13.399  -8.324  1.00  0.00     0.000 A 
ATOM     31  CE2 PHE A   2     -11.133 -14.853  -6.495  1.00  0.00     0.000 A 
ATOM     32  CZ  PHE A   2     -10.955 -14.424  -7.811  1.00  0.00     0.000 A 
ENDBRANCH  26  27
ENDBRANCH  10  26
ENDBRANCH   7  10
ENDBRANCH   5   6
BRANCH   5  33
ATOM     33  CB  HIS A   3     -18.098  -8.503  -6.295  1.00  0.00     0.093 C 
BRANCH  33  34
ATOM     34  CG  HIS A   3     -17.488  -7.134  -6.250  1.00  0.00     0.061 A 
ATOM     35  ND1 HIS A   3     -16.398  -6.775  -6.956  1.00  0.00    -0.242 NA
ATOM     36  CD2 HIS A   3     -17.844  -6.119  -5.389  1.00  0.00     0.107 A 
ATOM     37  CE1 HIS A   3     -16.127  -5.526  -6.522  1.00  0.00     0.196 A 
ATOM     38  NE2 HIS A   3     -16.984  -5.105  -5.572  1.00  0.00    -0.351 N 
ATOM     39  H   UNL     1     -16.971  -4.191  -5.069  1.00  0.00     0.167 HD
ENDBRANCH  33  34
ENDBRANCH   5  33
ENDBRANCH   1   5
BRANCH   3  40
ATOM     40  CA  LEU A   4     -19.815 -11.541  -3.055  1.00  0.00     0.171 C 
BRANCH  40  41
ATOM     41  C   LEU A   4     -21.169 -11.060  -3.464  1.00  0.00     0.243 C 
ATOM     42  N   ARG A   5     -21.505 -11.141  -4.842  1.00  0.00    -0.343 N 
ATOM     43  O   LEU A   4     -21.971 -10.550  -2.634  1.00  0.00    -0.273 OA
ATOM     44  H   UNL     1     -21.059 -11.899  -5.406  1.00  0.00     0.164 HD
BRANCH  42  45
ATOM     45  CA  ARG A   5     -22.679 -10.497  -5.387  1.00  0.00     0.171 C 
BRANCH  45  46
ATOM     46  C   ARG A   5     -23.897 -11.195  -4.885  1.00  0.00     0.243 C 
ATOM     47  N   ASN A   6     -24.982 -10.402  -4.433  1.00  0.00    -0.341 N 
ATOM     48  O   ARG A   5     -23.966 -12.455  -4.867  1.00  0.00    -0.273 OA
ATOM     49  H   UNL     1     -24.931  -9.364  -4.552  1.00  0.00     0.164 HD
BRANCH  47  50
ATOM     50  CA  ASN A   6     -26.189 -10.994  -3.883  1.00  0.00     0.201 C 
BRANCH  50  51
ATOM     51  C   ASN A   6     -27.053 -11.522  -4.997  1.00  0.00     0.326 C 
ATOM     52  O   ASN A   6     -27.151 -10.892  -6.084  1.00  0.00    -0.250 OA
BRANCH  51  53
ATOM     53  OXT ASN A   6     -27.774 -12.697  -4.811  1.00  0.00    -0.480 OA
ATOM     54  H   UNL     1     -28.371 -13.062  -5.543  1.00  0.00     0.296 HD
ENDBRANCH  51  53
ENDBRANCH  50  51
BRANCH  50  55
ATOM     55  CB  ASN A   6     -26.930  -9.934  -3.062  1.00  0.00     0.136 C 
BRANCH  55  56
ATOM     56  CG  ASN A   6     -28.019 -10.549  -2.252  1.00  0.00     0.220 C 
ATOM     57  ND2 ASN A   6     -27.701 -11.241  -1.053  1.00  0.00    -0.370 N 
ATOM     58  OD1 ASN A   6     -29.213 -10.484  -2.643  1.00  0.00    -0.275 OA
ATOM     59  H   UNL     1     -26.713 -11.314  -0.724  1.00  0.00     0.159 HD
ATOM     60  H   UNL     1     -28.456 -11.688  -0.487  1.00  0.00     0.159 HD
ENDBRANCH  55  56
ENDBRANCH  50  55
ENDBRANCH  47  50
ENDBRANCH  45  46
BRANCH  45  61
ATOM     61  CB  ARG A   5     -22.649 -10.518  -6.916  1.00  0.00     0.037 C 
BRANCH  61  62
ATOM     62  CG  ARG A   5     -21.461  -9.718  -7.458  1.00  0.00     0.024 C 
BRANCH  62  63
ATOM     63  CD  ARG A   5     -21.602  -9.480  -8.963  1.00  0.00     0.116 C 
BRANCH  63  64
ATOM     64  NE  ARG A   5     -21.190  -8.118  -9.283  1.00  0.00    -0.357 N 
ATOM     65  CZ  ARG A   5     -20.072  -7.775 -10.101  1.00  0.00     0.185 C 
ATOM     66  NH2 ARG A   5     -19.199  -8.775 -10.616  1.00  0.00    -0.370 N 
ATOM     67  H   UNL     1     -21.778  -7.343  -8.897  1.00  0.00     0.163 HD
ATOM     68  H   UNL     1     -19.100  -9.714 -10.177  1.00  0.00     0.159 HD
ATOM     69  H   UNL     1     -18.492  -8.517 -11.341  1.00  0.00     0.159 HD
BRANCH  65  70
ATOM     70  NH1 ARG A   5     -19.841  -6.532 -10.384  1.00  0.00    -0.270 NA
ATOM     71  H   UNL     1     -20.451  -5.762 -10.031  1.00  0.00     0.191 HD
ENDBRANCH  65  70
ENDBRANCH  63  64
ENDBRANCH  62  63
ENDBRANCH  61  62
ENDBRANCH  45  61
ENDBRANCH  42  45
ENDBRANCH  40  41
BRANCH  40  72
ATOM     72  CB  LEU A   4     -19.651 -11.691  -1.535  1.00  0.00     0.038 C 
BRANCH  72  73
ATOM     73  CG  LEU A   4     -20.295 -12.955  -0.946  1.00  0.00    -0.015 C 
ATOM     74  CD1 LEU A   4     -19.611 -14.232  -1.462  1.00  0.00     0.007 C 
ATOM     75  CD2 LEU A   4     -20.194 -12.898   0.582  1.00  0.00     0.007 C 
ENDBRANCH  72  73
ENDBRANCH  40  72
ENDBRANCH   3  40
TORSDOF 28
