REMARK SMILES CC(C)C[C@H](NC(=O)[C@H](CCC(N)=O)NC(=O)[C@H](Cc1ccccc1)NC(=O)[C@@H](N)CO)C(=O)N[C@@H](CCCNC(=N)N)C(=O)N[C@@H](CCCCN)C(=O)O
REMARK SMILES IDX 33 1 34 2 35 3 5 5 6 6 7 7 8 8 9 10 15 11 16 12 17 13 18 15
REMARK SMILES IDX 26 16 27 17 28 18 29 20 30 21 31 24 32 25 19 27 20 28 21 29
REMARK SMILES IDX 25 30 22 31 24 32 23 33 10 34 11 35 12 36 13 37 14 38 4 41
REMARK SMILES IDX 2 42 1 43 3 44 36 45 44 46 46 47 45 48 47 50 53 51 54 52
REMARK SMILES IDX 55 53 48 55 49 56 50 57 51 58 52 59 37 62 38 63 39 64 40 65
REMARK SMILES IDX 41 66 43 67 42 71
REMARK H PARENT 35 4 6 9 15 14 26 19 30 22 30 23 32 26 13 39 13 40 46 49 55 54
REMARK H PARENT 52 60 52 61 40 68 43 69 43 70 42 72
ROOT
ATOM      1  C   LEU A   4     -21.170 -11.060  -3.463  1.00  0.00     0.243 C 
ATOM      2  O   LEU A   4     -21.972 -10.550  -2.634  1.00  0.00    -0.273 OA
ATOM      3  N   ARG A   5     -21.505 -11.139  -4.842  1.00  0.00    -0.343 N 
ATOM      4  H   UNL     1     -21.060 -11.897  -5.406  1.00  0.00     0.164 HD
ENDROOT
BRANCH   1   5
ATOM      5  CA  LEU A   4     -19.816 -11.542  -3.054  1.00  0.00     0.171 C 
BRANCH   5   6
ATOM      6  N   LEU A   4     -18.845 -10.575  -3.524  1.00  0.00    -0.343 N 
ATOM      7  C   GLN A   3     -18.385 -10.531  -4.868  1.00  0.00     0.243 C 
ATOM      8  O   GLN A   3     -18.745 -11.396  -5.713  1.00  0.00    -0.273 OA
ATOM      9  H   UNL     1     -18.584  -9.791  -2.882  1.00  0.00     0.164 HD
BRANCH   7  10
ATOM     10  CA  GLN A   3     -17.458  -9.430  -5.249  1.00  0.00     0.171 C 
BRANCH  10  11
ATOM     11  N   GLN A   3     -16.214  -9.999  -5.728  1.00  0.00    -0.342 N 
ATOM     12  C   PHE A   2     -15.257 -10.542  -4.826  1.00  0.00     0.243 C 
ATOM     13  O   PHE A   2     -15.480 -10.575  -3.584  1.00  0.00    -0.273 OA
ATOM     14  H   UNL     1     -16.024 -10.026  -6.756  1.00  0.00     0.164 HD
BRANCH  12  15
ATOM     15  CA  PHE A   2     -13.978 -11.059  -5.384  1.00  0.00     0.175 C 
BRANCH  15  16
ATOM     16  N   PHE A   2     -12.858 -10.484  -4.659  1.00  0.00    -0.343 N 
ATOM     17  C   SER A   1     -12.597  -9.082  -4.702  1.00  0.00     0.239 C 
ATOM     18  O   SER A   1     -13.354  -8.307  -5.350  1.00  0.00    -0.273 OA
ATOM     19  H   UNL     1     -12.224 -11.103  -4.104  1.00  0.00     0.164 HD
BRANCH  17  20
ATOM     20  CA  SER A   1     -11.429  -8.546  -3.932  1.00  0.00     0.167 C 
BRANCH  20  21
ATOM     21  N   SER A   1     -10.863  -7.381  -4.610  1.00  0.00    -0.318 NA
ATOM     22  H   UNL     1     -10.000  -7.090  -4.094  1.00  0.00     0.119 HD
ATOM     23  H   UNL     1     -10.541  -7.676  -5.561  1.00  0.00     0.119 HD
ENDBRANCH  20  21
BRANCH  20  24
ATOM     24  CB  SER A   1     -11.840  -8.203  -2.486  1.00  0.00     0.184 C 
BRANCH  24  25
ATOM     25  OG  SER A   1     -12.064  -6.827  -2.332  1.00  0.00    -0.394 OA
ATOM     26  H   UNL     1     -12.953  -6.643  -2.733  1.00  0.00     0.210 HD
ENDBRANCH  24  25
ENDBRANCH  20  24
ENDBRANCH  17  20
ENDBRANCH  15  16
BRANCH  15  27
ATOM     27  CB  PHE A   2     -13.966 -12.595  -5.327  1.00  0.00     0.070 C 
BRANCH  27  28
ATOM     28  CG  PHE A   2     -12.883 -13.199  -6.184  1.00  0.00    -0.045 A 
ATOM     29  CD1 PHE A   2     -12.723 -12.807  -7.526  1.00  0.00     0.004 A 
ATOM     30  CD2 PHE A   2     -12.092 -14.243  -5.682  1.00  0.00     0.004 A 
ATOM     31  CE1 PHE A   2     -11.747 -13.399  -8.324  1.00  0.00     0.000 A 
ATOM     32  CE2 PHE A   2     -11.134 -14.853  -6.495  1.00  0.00     0.000 A 
ATOM     33  CZ  PHE A   2     -10.955 -14.424  -7.811  1.00  0.00     0.000 A 
ENDBRANCH  27  28
ENDBRANCH  15  27
ENDBRANCH  12  15
ENDBRANCH  10  11
BRANCH  10  34
ATOM     34  CB  GLN A   3     -18.106  -8.523  -6.299  1.00  0.00     0.045 C 
BRANCH  34  35
ATOM     35  CG  GLN A   3     -17.522  -7.110  -6.262  1.00  0.00     0.102 C 
BRANCH  35  36
ATOM     36  CD  GLN A   3     -18.179  -6.248  -7.298  1.00  0.00     0.217 C 
ATOM     37  NE2 GLN A   3     -17.430  -5.755  -8.409  1.00  0.00    -0.370 N 
ATOM     38  OE1 GLN A   3     -19.393  -5.934  -7.175  1.00  0.00    -0.275 OA
ATOM     39  H   UNL     1     -17.864  -5.084  -9.081  1.00  0.00     0.159 HD
ATOM     40  H   UNL     1     -16.433  -6.033  -8.549  1.00  0.00     0.159 HD
ENDBRANCH  35  36
ENDBRANCH  34  35
ENDBRANCH  10  34
ENDBRANCH   7  10
ENDBRANCH   5   6
BRANCH   5  41
ATOM     41  CB  LEU A   4     -19.653 -11.691  -1.534  1.00  0.00     0.038 C 
BRANCH  41  42
ATOM     42  CG  LEU A   4     -20.296 -12.956  -0.946  1.00  0.00    -0.015 C 
ATOM     43  CD1 LEU A   4     -19.611 -14.232  -1.462  1.00  0.00     0.007 C 
ATOM     44  CD2 LEU A   4     -20.195 -12.898   0.583  1.00  0.00     0.007 C 
ENDBRANCH  41  42
ENDBRANCH   5  41
ENDBRANCH   1   5
BRANCH   3  45
ATOM     45  CA  ARG A   5     -22.680 -10.496  -5.387  1.00  0.00     0.171 C 
BRANCH  45  46
ATOM     46  C   ARG A   5     -23.897 -11.195  -4.885  1.00  0.00     0.243 C 
ATOM     47  N   LYS A   6     -24.982 -10.406  -4.426  1.00  0.00    -0.341 N 
ATOM     48  O   ARG A   5     -23.964 -12.455  -4.869  1.00  0.00    -0.273 OA
ATOM     49  H   UNL     1     -24.934  -9.367  -4.540  1.00  0.00     0.164 HD
BRANCH  47  50
ATOM     50  CA  LYS A   6     -26.188 -11.006  -3.882  1.00  0.00     0.192 C 
BRANCH  50  51
ATOM     51  C   LYS A   6     -27.044 -11.529  -5.005  1.00  0.00     0.326 C 
ATOM     52  O   LYS A   6     -27.156 -10.881  -6.080  1.00  0.00    -0.250 OA
BRANCH  51  53
ATOM     53  OXT LYS A   6     -27.722 -12.735  -4.852  1.00  0.00    -0.480 OA
ATOM     54  H   UNL     1     -28.305 -13.101  -5.595  1.00  0.00     0.296 HD
ENDBRANCH  51  53
ENDBRANCH  50  51
BRANCH  50  55
ATOM     55  CB  LYS A   6     -26.934  -9.957  -3.045  1.00  0.00     0.037 C 
BRANCH  55  56
ATOM     56  CG  LYS A   6     -28.069 -10.566  -2.202  1.00  0.00     0.004 C 
BRANCH  56  57
ATOM     57  CD  LYS A   6     -27.738 -10.668  -0.701  1.00  0.00     0.015 C 
BRANCH  57  58
ATOM     58  CE  LYS A   6     -26.612 -11.663  -0.360  1.00  0.00     0.077 C 
BRANCH  58  59
ATOM     59  NZ  LYS A   6     -26.998 -13.052  -0.604  1.00  0.00    -0.330 NA
ATOM     60  H   UNL     1     -27.117 -13.207  -1.630  1.00  0.00     0.118 HD
ATOM     61  H   UNL     1     -27.915 -13.243  -0.138  1.00  0.00     0.118 HD
ENDBRANCH  58  59
ENDBRANCH  57  58
ENDBRANCH  56  57
ENDBRANCH  55  56
ENDBRANCH  50  55
ENDBRANCH  47  50
ENDBRANCH  45  46
BRANCH  45  62
ATOM     62  CB  ARG A   5     -22.650 -10.517  -6.916  1.00  0.00     0.037 C 
BRANCH  62  63
ATOM     63  CG  ARG A   5     -21.462  -9.717  -7.458  1.00  0.00     0.024 C 
BRANCH  63  64
ATOM     64  CD  ARG A   5     -21.602  -9.477  -8.962  1.00  0.00     0.116 C 
BRANCH  64  65
ATOM     65  NE  ARG A   5     -21.184  -8.116  -9.282  1.00  0.00    -0.357 N 
ATOM     66  CZ  ARG A   5     -20.072  -7.778 -10.106  1.00  0.00     0.185 C 
ATOM     67  NH2 ARG A   5     -19.198  -8.782 -10.615  1.00  0.00    -0.370 N 
ATOM     68  H   UNL     1     -21.764  -7.335  -8.898  1.00  0.00     0.163 HD
ATOM     69  H   UNL     1     -18.501  -8.540 -11.355  1.00  0.00     0.159 HD
ATOM     70  H   UNL     1     -19.090  -9.711 -10.158  1.00  0.00     0.159 HD
BRANCH  66  71
ATOM     71  NH1 ARG A   5     -19.861  -6.534 -10.396  1.00  0.00    -0.270 NA
ATOM     72  H   UNL     1     -19.062  -6.238 -11.000  1.00  0.00     0.191 HD
ENDBRANCH  66  71
ENDBRANCH  64  65
ENDBRANCH  63  64
ENDBRANCH  62  63
ENDBRANCH  45  62
ENDBRANCH   3  45
TORSDOF 32
