REMARK SMILES N=C(N)NCCC[C@H](NC(=O)[C@H](Cc1ccccc1)NC(=O)CNC(=O)[C@H](Cc1ccccc1)NC(=O)[C@@H](N)CO)C(=O)N[C@@H](CC(N)=O)C(=O)O
REMARK SMILES IDX 21 1 22 2 20 3 23 5 24 6 25 7 26 8 27 10 35 11 36 12 37 13
REMARK SMILES IDX 38 15 39 16 40 19 41 20 28 22 29 23 30 24 34 25 31 26 33 27
REMARK SMILES IDX 32 28 12 29 10 30 9 31 11 32 8 34 42 35 44 36 43 37 45 39
REMARK SMILES IDX 50 40 51 41 52 42 46 44 47 45 48 46 49 47 7 50 6 51 5 52
REMARK SMILES IDX 4 53 2 54 3 55 1 59 13 61 14 62 15 63 19 64 16 65 18 66
REMARK SMILES IDX 17 67
REMARK H PARENT 20 4 24 9 35 14 39 17 39 18 41 21 9 33 44 38 52 43 48 48 48 49
REMARK H PARENT 4 56 3 57 3 58 1 60
ROOT
ATOM      1  C   GLY A   3     -18.397 -10.534  -4.875  1.00  0.00     0.240 C 
ATOM      2  O   GLY A   3     -18.762 -11.403  -5.711  1.00  0.00    -0.273 OA
ATOM      3  N   PHE A   4     -18.825 -10.590  -3.518  1.00  0.00    -0.342 N 
ATOM      4  H   UNL     1     -18.500  -9.841  -2.864  1.00  0.00     0.164 HD
ENDROOT
BRANCH   1   5
ATOM      5  CA  GLY A   3     -17.485  -9.439  -5.294  1.00  0.00     0.216 C 
BRANCH   5   6
ATOM      6  N   GLY A   3     -16.224  -9.999  -5.732  1.00  0.00    -0.345 N 
ATOM      7  C   PHE A   2     -15.267 -10.537  -4.825  1.00  0.00     0.243 C 
ATOM      8  O   PHE A   2     -15.493 -10.567  -3.585  1.00  0.00    -0.273 OA
ATOM      9  H   UNL     1     -16.020  -9.989  -6.758  1.00  0.00     0.164 HD
BRANCH   7  10
ATOM     10  CA  PHE A   2     -13.984 -11.057  -5.381  1.00  0.00     0.175 C 
BRANCH  10  11
ATOM     11  N   PHE A   2     -12.863 -10.482  -4.657  1.00  0.00    -0.343 N 
ATOM     12  C   SER A   1     -12.598  -9.081  -4.702  1.00  0.00     0.239 C 
ATOM     13  O   SER A   1     -13.354  -8.306  -5.351  1.00  0.00    -0.273 OA
ATOM     14  H   UNL     1     -12.230 -11.102  -4.100  1.00  0.00     0.164 HD
BRANCH  12  15
ATOM     15  CA  SER A   1     -11.430  -8.546  -3.930  1.00  0.00     0.167 C 
BRANCH  15  16
ATOM     16  N   SER A   1     -10.864  -7.380  -4.607  1.00  0.00    -0.318 NA
ATOM     17  H   UNL     1     -10.000  -7.091  -4.093  1.00  0.00     0.119 HD
ATOM     18  H   UNL     1     -10.544  -7.675  -5.559  1.00  0.00     0.119 HD
ENDBRANCH  15  16
BRANCH  15  19
ATOM     19  CB  SER A   1     -11.839  -8.206  -2.484  1.00  0.00     0.184 C 
BRANCH  19  20
ATOM     20  OG  SER A   1     -12.062  -6.828  -2.339  1.00  0.00    -0.394 OA
ATOM     21  H   UNL     1     -12.320  -6.688  -1.391  1.00  0.00     0.210 HD
ENDBRANCH  19  20
ENDBRANCH  15  19
ENDBRANCH  12  15
ENDBRANCH  10  11
BRANCH  10  22
ATOM     22  CB  PHE A   2     -13.969 -12.594  -5.326  1.00  0.00     0.070 C 
BRANCH  22  23
ATOM     23  CG  PHE A   2     -12.885 -13.197  -6.183  1.00  0.00    -0.045 A 
ATOM     24  CD1 PHE A   2     -12.723 -12.805  -7.525  1.00  0.00     0.004 A 
ATOM     25  CD2 PHE A   2     -12.093 -14.242  -5.681  1.00  0.00     0.004 A 
ATOM     26  CE1 PHE A   2     -11.748 -13.398  -8.323  1.00  0.00     0.000 A 
ATOM     27  CE2 PHE A   2     -11.135 -14.852  -6.494  1.00  0.00     0.000 A 
ATOM     28  CZ  PHE A   2     -10.956 -14.423  -7.810  1.00  0.00     0.000 A 
ENDBRANCH  22  23
ENDBRANCH  10  22
ENDBRANCH   7  10
ENDBRANCH   5   6
ENDBRANCH   1   5
BRANCH   3  29
ATOM     29  CA  PHE A   4     -19.811 -11.548  -3.040  1.00  0.00     0.175 C 
BRANCH  29  30
ATOM     30  C   PHE A   4     -21.164 -11.059  -3.459  1.00  0.00     0.243 C 
ATOM     31  N   ARG A   5     -21.501 -11.144  -4.838  1.00  0.00    -0.343 N 
ATOM     32  O   PHE A   4     -21.966 -10.542  -2.634  1.00  0.00    -0.273 OA
ATOM     33  H   UNL     1     -21.069 -11.915  -5.393  1.00  0.00     0.164 HD
BRANCH  31  34
ATOM     34  CA  ARG A   5     -22.675 -10.498  -5.384  1.00  0.00     0.171 C 
BRANCH  34  35
ATOM     35  C   ARG A   5     -23.895 -11.195  -4.884  1.00  0.00     0.243 C 
ATOM     36  N   ASN A   6     -24.981 -10.402  -4.433  1.00  0.00    -0.341 N 
ATOM     37  O   ARG A   5     -23.965 -12.455  -4.867  1.00  0.00    -0.273 OA
ATOM     38  H   UNL     1     -24.929  -9.364  -4.552  1.00  0.00     0.164 HD
BRANCH  36  39
ATOM     39  CA  ASN A   6     -26.189 -10.994  -3.883  1.00  0.00     0.201 C 
BRANCH  39  40
ATOM     40  C   ASN A   6     -27.052 -11.522  -4.997  1.00  0.00     0.326 C 
ATOM     41  O   ASN A   6     -27.151 -10.892  -6.084  1.00  0.00    -0.250 OA
BRANCH  40  42
ATOM     42  OXT ASN A   6     -27.772 -12.698  -4.811  1.00  0.00    -0.480 OA
ATOM     43  H   UNL     1     -28.369 -13.063  -5.543  1.00  0.00     0.296 HD
ENDBRANCH  40  42
ENDBRANCH  39  40
BRANCH  39  44
ATOM     44  CB  ASN A   6     -26.929  -9.934  -3.062  1.00  0.00     0.136 C 
BRANCH  44  45
ATOM     45  CG  ASN A   6     -28.019 -10.549  -2.252  1.00  0.00     0.220 C 
ATOM     46  ND2 ASN A   6     -27.701 -11.242  -1.053  1.00  0.00    -0.370 N 
ATOM     47  OD1 ASN A   6     -29.213 -10.483  -2.643  1.00  0.00    -0.275 OA
ATOM     48  H   UNL     1     -28.456 -11.688  -0.487  1.00  0.00     0.159 HD
ATOM     49  H   UNL     1     -26.712 -11.315  -0.725  1.00  0.00     0.159 HD
ENDBRANCH  44  45
ENDBRANCH  39  44
ENDBRANCH  36  39
ENDBRANCH  34  35
BRANCH  34  50
ATOM     50  CB  ARG A   5     -22.644 -10.516  -6.912  1.00  0.00     0.037 C 
BRANCH  50  51
ATOM     51  CG  ARG A   5     -21.454  -9.718  -7.456  1.00  0.00     0.024 C 
BRANCH  51  52
ATOM     52  CD  ARG A   5     -21.601  -9.477  -8.961  1.00  0.00     0.116 C 
BRANCH  52  53
ATOM     53  NE  ARG A   5     -21.186  -8.116  -9.284  1.00  0.00    -0.357 N 
ATOM     54  CZ  ARG A   5     -20.071  -7.777 -10.104  1.00  0.00     0.185 C 
ATOM     55  NH2 ARG A   5     -19.200  -8.781 -10.620  1.00  0.00    -0.370 N 
ATOM     56  H   UNL     1     -21.767  -7.335  -8.901  1.00  0.00     0.163 HD
ATOM     57  H   UNL     1     -18.501  -8.536 -11.357  1.00  0.00     0.159 HD
ATOM     58  H   UNL     1     -19.102  -9.718 -10.178  1.00  0.00     0.159 HD
BRANCH  54  59
ATOM     59  NH1 ARG A   5     -19.851  -6.531 -10.380  1.00  0.00    -0.270 NA
ATOM     60  H   UNL     1     -19.046  -6.232 -10.975  1.00  0.00     0.191 HD
ENDBRANCH  54  59
ENDBRANCH  52  53
ENDBRANCH  51  52
ENDBRANCH  50  51
ENDBRANCH  34  50
ENDBRANCH  31  34
ENDBRANCH  29  30
BRANCH  29  61
ATOM     61  CB  PHE A   4     -19.664 -11.702  -1.515  1.00  0.00     0.070 C 
BRANCH  61  62
ATOM     62  CG  PHE A   4     -20.333 -12.945  -0.989  1.00  0.00    -0.045 A 
ATOM     63  CD1 PHE A   4     -19.719 -14.199  -1.145  1.00  0.00     0.004 A 
ATOM     64  CD2 PHE A   4     -21.596 -12.869  -0.378  1.00  0.00     0.004 A 
ATOM     65  CE1 PHE A   4     -20.355 -15.357  -0.687  1.00  0.00     0.000 A 
ATOM     66  CE2 PHE A   4     -22.229 -14.029   0.078  1.00  0.00     0.000 A 
ATOM     67  CZ  PHE A   4     -21.609 -15.272  -0.075  1.00  0.00     0.000 A 
ENDBRANCH  61  62
ENDBRANCH  29  61
ENDBRANCH   3  29
TORSDOF 26
