REMARK SMILES CC(C)C[C@H](NC(=O)[C@H](CO)NC(=O)[C@H](Cc1ccccc1)NC(=O)[C@@H](N)CO)C(=O)N[C@@H](CCCCN)C(=O)N[C@@H](CC(N)=O)C(=O)O
REMARK SMILES IDX 7 1 8 2 6 3 9 5 12 6 13 7 14 8 15 10 23 11 24 12 25 13 26 15
REMARK SMILES IDX 27 16 28 19 29 20 16 22 17 23 18 24 22 25 19 26 21 27 20 28
REMARK SMILES IDX 10 29 11 30 5 32 30 33 32 34 31 35 33 37 39 38 41 39 40 40
REMARK SMILES IDX 42 42 47 43 48 44 49 45 43 47 44 48 45 49 46 50 34 53 35 54
REMARK SMILES IDX 36 55 37 56 38 57 4 60 2 61 1 62 3 63
REMARK H PARENT 6 4 12 9 23 14 27 17 27 18 29 21 11 31 32 36 41 41 49 46 45 51
REMARK H PARENT 45 52 38 58 38 59
ROOT
ATOM      1  C   SER A   3     -18.394 -10.520  -4.878  1.00  0.00     0.245 C 
ATOM      2  O   SER A   3     -18.749 -11.394  -5.715  1.00  0.00    -0.273 OA
ATOM      3  N   LEU A   4     -18.844 -10.567  -3.530  1.00  0.00    -0.342 N 
ATOM      4  H   UNL     1     -18.570  -9.789  -2.887  1.00  0.00     0.164 HD
ENDROOT
BRANCH   1   5
ATOM      5  CA  SER A   3     -17.455  -9.429  -5.268  1.00  0.00     0.197 C 
BRANCH   5   6
ATOM      6  N   SER A   3     -16.210 -10.010  -5.730  1.00  0.00    -0.340 N 
ATOM      7  C   PHE A   2     -15.256 -10.545  -4.822  1.00  0.00     0.243 C 
ATOM      8  O   PHE A   2     -15.482 -10.574  -3.581  1.00  0.00    -0.273 OA
ATOM      9  H   UNL     1     -16.007 -10.044  -6.755  1.00  0.00     0.164 HD
BRANCH   7  10
ATOM     10  CA  PHE A   2     -13.976 -11.063  -5.379  1.00  0.00     0.175 C 
BRANCH  10  11
ATOM     11  N   PHE A   2     -12.857 -10.485  -4.657  1.00  0.00    -0.343 N 
ATOM     12  C   SER A   1     -12.601  -9.083  -4.706  1.00  0.00     0.239 C 
ATOM     13  O   SER A   1     -13.364  -8.314  -5.355  1.00  0.00    -0.273 OA
ATOM     14  H   UNL     1     -12.221 -11.101  -4.100  1.00  0.00     0.164 HD
BRANCH  12  15
ATOM     15  CA  SER A   1     -11.436  -8.538  -3.934  1.00  0.00     0.167 C 
BRANCH  15  16
ATOM     16  N   SER A   1     -10.842  -7.380  -4.606  1.00  0.00    -0.318 NA
ATOM     17  H   UNL     1     -10.468  -7.690  -5.533  1.00  0.00     0.119 HD
ATOM     18  H   UNL     1     -11.570  -6.653  -4.797  1.00  0.00     0.119 HD
ENDBRANCH  15  16
BRANCH  15  19
ATOM     19  CB  SER A   1     -11.836  -8.200  -2.485  1.00  0.00     0.184 C 
BRANCH  19  20
ATOM     20  OG  SER A   1     -12.062  -6.826  -2.322  1.00  0.00    -0.394 OA
ATOM     21  H   UNL     1     -12.977  -6.650  -2.667  1.00  0.00     0.210 HD
ENDBRANCH  19  20
ENDBRANCH  15  19
ENDBRANCH  12  15
ENDBRANCH  10  11
BRANCH  10  22
ATOM     22  CB  PHE A   2     -13.964 -12.598  -5.323  1.00  0.00     0.070 C 
BRANCH  22  23
ATOM     23  CG  PHE A   2     -12.882 -13.200  -6.182  1.00  0.00    -0.045 A 
ATOM     24  CD1 PHE A   2     -12.723 -12.808  -7.525  1.00  0.00     0.004 A 
ATOM     25  CD2 PHE A   2     -12.091 -14.245  -5.682  1.00  0.00     0.004 A 
ATOM     26  CE1 PHE A   2     -11.748 -13.399  -8.324  1.00  0.00     0.000 A 
ATOM     27  CE2 PHE A   2     -11.133 -14.854  -6.496  1.00  0.00     0.000 A 
ATOM     28  CZ  PHE A   2     -10.955 -14.424  -7.812  1.00  0.00     0.000 A 
ENDBRANCH  22  23
ENDBRANCH  10  22
ENDBRANCH   7  10
ENDBRANCH   5   6
BRANCH   5  29
ATOM     29  CB  SER A   3     -18.059  -8.512  -6.329  1.00  0.00     0.191 C 
BRANCH  29  30
ATOM     30  OG  SER A   3     -18.208  -9.184  -7.551  1.00  0.00    -0.394 OA
ATOM     31  H   UNL     1     -18.515  -8.502  -8.203  1.00  0.00     0.210 HD
ENDBRANCH  29  30
ENDBRANCH   5  29
ENDBRANCH   1   5
BRANCH   3  32
ATOM     32  CA  LEU A   4     -19.814 -11.536  -3.058  1.00  0.00     0.171 C 
BRANCH  32  33
ATOM     33  C   LEU A   4     -21.170 -11.057  -3.467  1.00  0.00     0.243 C 
ATOM     34  N   LYS A   5     -21.507 -11.135  -4.847  1.00  0.00    -0.343 N 
ATOM     35  O   LEU A   4     -21.973 -10.549  -2.636  1.00  0.00    -0.273 OA
ATOM     36  H   UNL     1     -21.066 -11.896  -5.409  1.00  0.00     0.164 HD
BRANCH  34  37
ATOM     37  CA  LYS A   5     -22.681 -10.488  -5.393  1.00  0.00     0.171 C 
BRANCH  37  38
ATOM     38  C   LYS A   5     -23.898 -11.189  -4.891  1.00  0.00     0.243 C 
ATOM     39  N   ASN A   6     -24.983 -10.399  -4.434  1.00  0.00    -0.341 N 
ATOM     40  O   LYS A   5     -23.964 -12.450  -4.872  1.00  0.00    -0.273 OA
ATOM     41  H   UNL     1     -24.932  -9.361  -4.551  1.00  0.00     0.164 HD
BRANCH  39  42
ATOM     42  CA  ASN A   6     -26.189 -10.993  -3.884  1.00  0.00     0.201 C 
BRANCH  42  43
ATOM     43  C   ASN A   6     -27.052 -11.522  -4.997  1.00  0.00     0.326 C 
ATOM     44  O   ASN A   6     -27.152 -10.892  -6.084  1.00  0.00    -0.250 OA
BRANCH  43  45
ATOM     45  OXT ASN A   6     -27.772 -12.698  -4.810  1.00  0.00    -0.480 OA
ATOM     46  H   UNL     1     -28.369 -13.063  -5.542  1.00  0.00     0.296 HD
ENDBRANCH  43  45
ENDBRANCH  42  43
BRANCH  42  47
ATOM     47  CB  ASN A   6     -26.930  -9.934  -3.062  1.00  0.00     0.136 C 
BRANCH  47  48
ATOM     48  CG  ASN A   6     -28.019 -10.550  -2.252  1.00  0.00     0.220 C 
ATOM     49  ND2 ASN A   6     -27.701 -11.242  -1.053  1.00  0.00    -0.370 N 
ATOM     50  OD1 ASN A   6     -29.213 -10.484  -2.642  1.00  0.00    -0.275 OA
ATOM     51  H   UNL     1     -28.456 -11.689  -0.487  1.00  0.00     0.159 HD
ATOM     52  H   UNL     1     -26.712 -11.315  -0.724  1.00  0.00     0.159 HD
ENDBRANCH  47  48
ENDBRANCH  42  47
ENDBRANCH  39  42
ENDBRANCH  37  38
BRANCH  37  53
ATOM     53  CB  LYS A   5     -22.650 -10.501  -6.926  1.00  0.00     0.035 C 
BRANCH  53  54
ATOM     54  CG  LYS A   5     -21.444  -9.720  -7.464  1.00  0.00     0.004 C 
BRANCH  54  55
ATOM     55  CD  LYS A   5     -21.521  -9.496  -8.980  1.00  0.00     0.015 C 
BRANCH  55  56
ATOM     56  CE  LYS A   5     -21.315 -10.777  -9.801  1.00  0.00     0.077 C 
BRANCH  56  57
ATOM     57  NZ  LYS A   5     -20.002 -11.361  -9.541  1.00  0.00    -0.330 NA
ATOM     58  H   UNL     1     -19.939 -12.255 -10.079  1.00  0.00     0.118 HD
ATOM     59  H   UNL     1     -19.275 -10.722  -9.937  1.00  0.00     0.118 HD
ENDBRANCH  56  57
ENDBRANCH  55  56
ENDBRANCH  54  55
ENDBRANCH  53  54
ENDBRANCH  37  53
ENDBRANCH  34  37
ENDBRANCH  32  33
BRANCH  32  60
ATOM     60  CB  LEU A   4     -19.651 -11.688  -1.537  1.00  0.00     0.038 C 
BRANCH  60  61
ATOM     61  CG  LEU A   4     -20.295 -12.953  -0.948  1.00  0.00    -0.015 C 
ATOM     62  CD1 LEU A   4     -19.610 -14.230  -1.464  1.00  0.00     0.007 C 
ATOM     63  CD2 LEU A   4     -20.194 -12.896   0.581  1.00  0.00     0.007 C 
ENDBRANCH  60  61
ENDBRANCH  32  60
ENDBRANCH   3  32
TORSDOF 28
