REMARK SMILES CC(C)C[C@H](NC(=O)[C@H](Cc1ccccc1)NC(=O)[C@@H](N)CO)C(=O)N[C@@H](Cc1c[nH]cn1)C(=O)N[C@@H](CCCNC(=N)N)C(=O)N[C@@H](CCCCN)C(=O)O
REMARK SMILES IDX 34 1 35 2 36 3 27 5 26 6 24 7 25 8 5 10 6 11 7 12 8 13 9 15
REMARK SMILES IDX 17 16 18 17 19 18 20 20 21 21 22 24 23 25 10 27 11 28 12 29
REMARK SMILES IDX 16 30 13 31 15 32 14 33 4 34 2 35 1 36 3 37 28 38 29 39
REMARK SMILES IDX 33 40 30 41 32 42 31 43 37 45 45 46 47 47 46 48 48 50 54 51
REMARK SMILES IDX 55 52 56 53 49 55 50 56 51 57 52 58 53 59 38 62 39 63 40 64
REMARK SMILES IDX 41 65 42 66 44 67 43 71
REMARK H PARENT 36 4 26 9 6 14 17 19 21 22 21 23 23 26 31 44 47 49 56 54 53 60
REMARK H PARENT 53 61 41 68 44 69 44 70 43 72
ROOT
ATOM      1  C   HIS A   4     -21.170 -11.065  -3.458  1.00  0.00     0.243 C 
ATOM      2  O   HIS A   4     -21.971 -10.547  -2.631  1.00  0.00    -0.273 OA
ATOM      3  N   ARG A   5     -21.503 -11.142  -4.838  1.00  0.00    -0.343 N 
ATOM      4  H   UNL     1     -21.064 -11.906  -5.398  1.00  0.00     0.164 HD
ENDROOT
BRANCH   1   5
ATOM      5  CA  HIS A   4     -19.822 -11.562  -3.039  1.00  0.00     0.177 C 
BRANCH   5   6
ATOM      6  N   HIS A   4     -18.839 -10.606  -3.513  1.00  0.00    -0.342 N 
ATOM      7  C   LEU A   3     -18.387 -10.553  -4.862  1.00  0.00     0.243 C 
ATOM      8  O   LEU A   3     -18.755 -11.408  -5.712  1.00  0.00    -0.273 OA
ATOM      9  H   UNL     1     -18.554  -9.839  -2.860  1.00  0.00     0.164 HD
BRANCH   7  10
ATOM     10  CA  LEU A   3     -17.456  -9.457  -5.240  1.00  0.00     0.171 C 
BRANCH  10  11
ATOM     11  N   LEU A   3     -16.217 -10.020  -5.729  1.00  0.00    -0.343 N 
ATOM     12  C   PHE A   2     -15.252 -10.547  -4.826  1.00  0.00     0.243 C 
ATOM     13  O   PHE A   2     -15.472 -10.577  -3.583  1.00  0.00    -0.273 OA
ATOM     14  H   UNL     1     -16.041 -10.070  -6.758  1.00  0.00     0.164 HD
BRANCH  12  15
ATOM     15  CA  PHE A   2     -13.974 -11.061  -5.385  1.00  0.00     0.175 C 
BRANCH  15  16
ATOM     16  N   PHE A   2     -12.855 -10.484  -4.660  1.00  0.00    -0.343 N 
ATOM     17  C   SER A   1     -12.596  -9.082  -4.702  1.00  0.00     0.239 C 
ATOM     18  O   SER A   1     -13.355  -8.307  -5.349  1.00  0.00    -0.273 OA
ATOM     19  H   UNL     1     -12.220 -11.103  -4.105  1.00  0.00     0.164 HD
BRANCH  17  20
ATOM     20  CA  SER A   1     -11.430  -8.545  -3.930  1.00  0.00     0.167 C 
BRANCH  20  21
ATOM     21  N   SER A   1     -10.865  -7.379  -4.607  1.00  0.00    -0.318 NA
ATOM     22  H   UNL     1     -10.544  -7.674  -5.559  1.00  0.00     0.119 HD
ATOM     23  H   UNL     1     -10.001  -7.089  -4.092  1.00  0.00     0.119 HD
ENDBRANCH  20  21
BRANCH  20  24
ATOM     24  CB  SER A   1     -11.839  -8.205  -2.484  1.00  0.00     0.184 C 
BRANCH  24  25
ATOM     25  OG  SER A   1     -12.062  -6.828  -2.339  1.00  0.00    -0.394 OA
ATOM     26  H   UNL     1     -12.323  -6.688  -1.392  1.00  0.00     0.210 HD
ENDBRANCH  24  25
ENDBRANCH  20  24
ENDBRANCH  17  20
ENDBRANCH  15  16
BRANCH  15  27
ATOM     27  CB  PHE A   2     -13.963 -12.596  -5.327  1.00  0.00     0.070 C 
BRANCH  27  28
ATOM     28  CG  PHE A   2     -12.882 -13.200  -6.184  1.00  0.00    -0.045 A 
ATOM     29  CD1 PHE A   2     -12.722 -12.807  -7.527  1.00  0.00     0.004 A 
ATOM     30  CD2 PHE A   2     -12.091 -14.244  -5.683  1.00  0.00     0.004 A 
ATOM     31  CE1 PHE A   2     -11.747 -13.399  -8.324  1.00  0.00     0.000 A 
ATOM     32  CE2 PHE A   2     -11.133 -14.854  -6.496  1.00  0.00     0.000 A 
ATOM     33  CZ  PHE A   2     -10.954 -14.424  -7.812  1.00  0.00     0.000 A 
ENDBRANCH  27  28
ENDBRANCH  15  27
ENDBRANCH  12  15
ENDBRANCH  10  11
BRANCH  10  34
ATOM     34  CB  LEU A   3     -18.102  -8.527  -6.274  1.00  0.00     0.038 C 
BRANCH  34  35
ATOM     35  CG  LEU A   3     -17.543  -7.092  -6.222  1.00  0.00    -0.015 C 
ATOM     36  CD1 LEU A   3     -18.188  -6.264  -7.337  1.00  0.00     0.007 C 
ATOM     37  CD2 LEU A   3     -17.812  -6.423  -4.860  1.00  0.00     0.007 C 
ENDBRANCH  34  35
ENDBRANCH  10  34
ENDBRANCH   7  10
ENDBRANCH   5   6
BRANCH   5  38
ATOM     38  CB  HIS A   4     -19.670 -11.712  -1.515  1.00  0.00     0.093 C 
BRANCH  38  39
ATOM     39  CG  HIS A   4     -20.340 -12.943  -0.991  1.00  0.00     0.061 A 
ATOM     40  ND1 HIS A   4     -21.600 -12.968  -0.511  1.00  0.00    -0.242 NA
ATOM     41  CD2 HIS A   4     -19.819 -14.217  -1.006  1.00  0.00     0.107 A 
ATOM     42  CE1 HIS A   4     -21.811 -14.270  -0.225  1.00  0.00     0.196 A 
ATOM     43  NE2 HIS A   4     -20.750 -15.048  -0.516  1.00  0.00    -0.351 N 
ATOM     44  H   UNL     1     -20.673 -16.082  -0.395  1.00  0.00     0.167 HD
ENDBRANCH  38  39
ENDBRANCH   5  38
ENDBRANCH   1   5
BRANCH   3  45
ATOM     45  CA  ARG A   5     -22.678 -10.497  -5.384  1.00  0.00     0.171 C 
BRANCH  45  46
ATOM     46  C   ARG A   5     -23.897 -11.196  -4.883  1.00  0.00     0.243 C 
ATOM     47  N   LYS A   6     -24.982 -10.406  -4.425  1.00  0.00    -0.341 N 
ATOM     48  O   ARG A   5     -23.965 -12.456  -4.868  1.00  0.00    -0.273 OA
ATOM     49  H   UNL     1     -24.931  -9.366  -4.537  1.00  0.00     0.164 HD
BRANCH  47  50
ATOM     50  CA  LYS A   6     -26.190 -11.003  -3.879  1.00  0.00     0.192 C 
BRANCH  50  51
ATOM     51  C   LYS A   6     -27.048 -11.526  -5.000  1.00  0.00     0.326 C 
ATOM     52  O   LYS A   6     -27.154 -10.884  -6.080  1.00  0.00    -0.250 OA
BRANCH  51  53
ATOM     53  OXT LYS A   6     -27.742 -12.721  -4.836  1.00  0.00    -0.480 OA
ATOM     54  H   UNL     1     -28.329 -13.086  -5.576  1.00  0.00     0.296 HD
ENDBRANCH  51  53
ENDBRANCH  50  51
BRANCH  50  55
ATOM     55  CB  LYS A   6     -26.930  -9.952  -3.040  1.00  0.00     0.037 C 
BRANCH  55  56
ATOM     56  CG  LYS A   6     -28.063 -10.574  -2.218  1.00  0.00     0.004 C 
BRANCH  56  57
ATOM     57  CD  LYS A   6     -28.868  -9.526  -1.428  1.00  0.00     0.015 C 
BRANCH  57  58
ATOM     58  CE  LYS A   6     -28.091  -8.890  -0.266  1.00  0.00     0.077 C 
BRANCH  58  59
ATOM     59  NZ  LYS A   6     -27.651  -9.903   0.688  1.00  0.00    -0.330 NA
ATOM     60  H   UNL     1     -28.496 -10.291   1.168  1.00  0.00     0.118 HD
ATOM     61  H   UNL     1     -27.085  -9.423   1.424  1.00  0.00     0.118 HD
ENDBRANCH  58  59
ENDBRANCH  57  58
ENDBRANCH  56  57
ENDBRANCH  55  56
ENDBRANCH  50  55
ENDBRANCH  47  50
ENDBRANCH  45  46
BRANCH  45  62
ATOM     62  CB  ARG A   5     -22.648 -10.518  -6.914  1.00  0.00     0.037 C 
BRANCH  62  63
ATOM     63  CG  ARG A   5     -21.462  -9.717  -7.457  1.00  0.00     0.024 C 
BRANCH  63  64
ATOM     64  CD  ARG A   5     -21.602  -9.478  -8.962  1.00  0.00     0.116 C 
BRANCH  64  65
ATOM     65  NE  ARG A   5     -21.186  -8.116  -9.283  1.00  0.00    -0.357 N 
ATOM     66  CZ  ARG A   5     -20.073  -7.777 -10.106  1.00  0.00     0.185 C 
ATOM     67  NH2 ARG A   5     -19.198  -8.780 -10.616  1.00  0.00    -0.370 N 
ATOM     68  H   UNL     1     -21.765  -7.335  -8.898  1.00  0.00     0.163 HD
ATOM     69  H   UNL     1     -18.499  -8.537 -11.353  1.00  0.00     0.159 HD
ATOM     70  H   UNL     1     -19.094  -9.712 -10.163  1.00  0.00     0.159 HD
BRANCH  66  71
ATOM     71  NH1 ARG A   5     -19.856  -6.532 -10.386  1.00  0.00    -0.270 NA
ATOM     72  H   UNL     1     -19.051  -6.233 -10.981  1.00  0.00     0.191 HD
ENDBRANCH  66  71
ENDBRANCH  64  65
ENDBRANCH  63  64
ENDBRANCH  62  63
ENDBRANCH  45  62
ENDBRANCH   3  45
TORSDOF 31
