REMARK SMILES CC(C)C[C@H](NC(=O)[C@H](Cc1ccccc1)NC(=O)[C@@H](N)CO)C(=O)N[C@@H](CC(N)=O)C(=O)N[C@@H](CCCNC(=N)N)C(=O)N[C@@H](CCCCN)C(=O)O
REMARK SMILES IDX 32 1 33 2 34 3 27 5 26 6 24 7 25 8 5 10 6 11 7 12 8 13 9 15
REMARK SMILES IDX 17 16 18 17 19 18 20 20 21 21 22 24 23 25 10 27 11 28 12 29
REMARK SMILES IDX 16 30 13 31 15 32 14 33 4 34 2 35 1 36 3 37 28 38 29 39
REMARK SMILES IDX 30 40 31 41 35 44 43 45 45 46 44 47 46 49 52 50 53 51 54 52
REMARK SMILES IDX 47 54 48 55 49 56 50 57 51 58 36 61 37 62 38 63 39 64 40 65
REMARK SMILES IDX 42 66 41 70
REMARK H PARENT 34 4 26 9 6 14 17 19 21 22 21 23 23 26 30 42 30 43 45 48 54 53
REMARK H PARENT 51 59 51 60 39 67 42 68 42 69 41 71
ROOT
ATOM      1  C   ASN A   4     -21.171 -11.065  -3.458  1.00  0.00     0.243 C 
ATOM      2  O   ASN A   4     -21.970 -10.544  -2.633  1.00  0.00    -0.273 OA
ATOM      3  N   ARG A   5     -21.503 -11.142  -4.839  1.00  0.00    -0.343 N 
ATOM      4  H   UNL     1     -21.064 -11.906  -5.399  1.00  0.00     0.164 HD
ENDROOT
BRANCH   1   5
ATOM      5  CA  ASN A   4     -19.823 -11.562  -3.039  1.00  0.00     0.180 C 
BRANCH   5   6
ATOM      6  N   ASN A   4     -18.839 -10.606  -3.512  1.00  0.00    -0.342 N 
ATOM      7  C   LEU A   3     -18.388 -10.553  -4.862  1.00  0.00     0.243 C 
ATOM      8  O   LEU A   3     -18.755 -11.408  -5.712  1.00  0.00    -0.273 OA
ATOM      9  H   UNL     1     -18.554  -9.840  -2.860  1.00  0.00     0.164 HD
BRANCH   7  10
ATOM     10  CA  LEU A   3     -17.457  -9.457  -5.240  1.00  0.00     0.171 C 
BRANCH  10  11
ATOM     11  N   LEU A   3     -16.217 -10.020  -5.729  1.00  0.00    -0.343 N 
ATOM     12  C   PHE A   2     -15.252 -10.547  -4.826  1.00  0.00     0.243 C 
ATOM     13  O   PHE A   2     -15.472 -10.577  -3.583  1.00  0.00    -0.273 OA
ATOM     14  H   UNL     1     -16.041 -10.071  -6.758  1.00  0.00     0.164 HD
BRANCH  12  15
ATOM     15  CA  PHE A   2     -13.974 -11.061  -5.385  1.00  0.00     0.175 C 
BRANCH  15  16
ATOM     16  N   PHE A   2     -12.855 -10.484  -4.660  1.00  0.00    -0.343 N 
ATOM     17  C   SER A   1     -12.596  -9.082  -4.702  1.00  0.00     0.239 C 
ATOM     18  O   SER A   1     -13.355  -8.307  -5.349  1.00  0.00    -0.273 OA
ATOM     19  H   UNL     1     -12.220 -11.103  -4.105  1.00  0.00     0.164 HD
BRANCH  17  20
ATOM     20  CA  SER A   1     -11.430  -8.545  -3.930  1.00  0.00     0.167 C 
BRANCH  20  21
ATOM     21  N   SER A   1     -10.865  -7.379  -4.607  1.00  0.00    -0.318 NA
ATOM     22  H   UNL     1     -10.001  -7.089  -4.092  1.00  0.00     0.119 HD
ATOM     23  H   UNL     1     -10.544  -7.674  -5.559  1.00  0.00     0.119 HD
ENDBRANCH  20  21
BRANCH  20  24
ATOM     24  CB  SER A   1     -11.839  -8.205  -2.484  1.00  0.00     0.184 C 
BRANCH  24  25
ATOM     25  OG  SER A   1     -12.062  -6.828  -2.339  1.00  0.00    -0.394 OA
ATOM     26  H   UNL     1     -12.323  -6.688  -1.392  1.00  0.00     0.210 HD
ENDBRANCH  24  25
ENDBRANCH  20  24
ENDBRANCH  17  20
ENDBRANCH  15  16
BRANCH  15  27
ATOM     27  CB  PHE A   2     -13.963 -12.596  -5.327  1.00  0.00     0.070 C 
BRANCH  27  28
ATOM     28  CG  PHE A   2     -12.882 -13.200  -6.184  1.00  0.00    -0.045 A 
ATOM     29  CD1 PHE A   2     -12.722 -12.807  -7.527  1.00  0.00     0.004 A 
ATOM     30  CD2 PHE A   2     -12.091 -14.244  -5.683  1.00  0.00     0.004 A 
ATOM     31  CE1 PHE A   2     -11.747 -13.399  -8.324  1.00  0.00     0.000 A 
ATOM     32  CE2 PHE A   2     -11.133 -14.854  -6.496  1.00  0.00     0.000 A 
ATOM     33  CZ  PHE A   2     -10.954 -14.424  -7.812  1.00  0.00     0.000 A 
ENDBRANCH  27  28
ENDBRANCH  15  27
ENDBRANCH  12  15
ENDBRANCH  10  11
BRANCH  10  34
ATOM     34  CB  LEU A   3     -18.102  -8.527  -6.274  1.00  0.00     0.038 C 
BRANCH  34  35
ATOM     35  CG  LEU A   3     -17.544  -7.092  -6.222  1.00  0.00    -0.015 C 
ATOM     36  CD1 LEU A   3     -18.188  -6.264  -7.337  1.00  0.00     0.007 C 
ATOM     37  CD2 LEU A   3     -17.812  -6.423  -4.860  1.00  0.00     0.007 C 
ENDBRANCH  34  35
ENDBRANCH  10  34
ENDBRANCH   7  10
ENDBRANCH   5   6
BRANCH   5  38
ATOM     38  CB  ASN A   4     -19.672 -11.711  -1.515  1.00  0.00     0.134 C 
BRANCH  38  39
ATOM     39  CG  ASN A   4     -20.335 -12.948  -0.988  1.00  0.00     0.220 C 
ATOM     40  ND2 ASN A   4     -21.621 -12.876  -0.372  1.00  0.00    -0.370 N 
ATOM     41  OD1 ASN A   4     -19.768 -14.065  -1.118  1.00  0.00    -0.275 OA
ATOM     42  H   UNL     1     -22.108 -11.960  -0.254  1.00  0.00     0.159 HD
ATOM     43  H   UNL     1     -22.088 -13.744  -0.026  1.00  0.00     0.159 HD
ENDBRANCH  38  39
ENDBRANCH   5  38
ENDBRANCH   1   5
BRANCH   3  44
ATOM     44  CA  ARG A   5     -22.678 -10.497  -5.384  1.00  0.00     0.171 C 
BRANCH  44  45
ATOM     45  C   ARG A   5     -23.897 -11.195  -4.883  1.00  0.00     0.243 C 
ATOM     46  N   LYS A   6     -24.983 -10.405  -4.425  1.00  0.00    -0.341 N 
ATOM     47  O   ARG A   5     -23.965 -12.456  -4.869  1.00  0.00    -0.273 OA
ATOM     48  H   UNL     1     -24.932  -9.366  -4.537  1.00  0.00     0.164 HD
BRANCH  46  49
ATOM     49  CA  LYS A   6     -26.190 -11.003  -3.879  1.00  0.00     0.192 C 
BRANCH  49  50
ATOM     50  C   LYS A   6     -27.051 -11.525  -4.998  1.00  0.00     0.326 C 
ATOM     51  O   LYS A   6     -27.152 -10.886  -6.080  1.00  0.00    -0.250 OA
BRANCH  50  52
ATOM     52  OXT LYS A   6     -27.756 -12.711  -4.827  1.00  0.00    -0.480 OA
ATOM     53  H   UNL     1     -28.349 -13.074  -5.565  1.00  0.00     0.296 HD
ENDBRANCH  50  52
ENDBRANCH  49  50
BRANCH  49  54
ATOM     54  CB  LYS A   6     -26.928  -9.954  -3.038  1.00  0.00     0.037 C 
BRANCH  54  55
ATOM     55  CG  LYS A   6     -28.064 -10.573  -2.221  1.00  0.00     0.004 C 
BRANCH  55  56
ATOM     56  CD  LYS A   6     -28.743  -9.517  -1.337  1.00  0.00     0.015 C 
BRANCH  56  57
ATOM     57  CE  LYS A   6     -29.955 -10.078  -0.583  1.00  0.00     0.077 C 
BRANCH  57  58
ATOM     58  NZ  LYS A   6     -29.538 -11.028   0.445  1.00  0.00    -0.330 NA
ATOM     59  H   UNL     1     -29.342 -11.947  -0.015  1.00  0.00     0.118 HD
ATOM     60  H   UNL     1     -30.354 -11.192   1.078  1.00  0.00     0.118 HD
ENDBRANCH  57  58
ENDBRANCH  56  57
ENDBRANCH  55  56
ENDBRANCH  54  55
ENDBRANCH  49  54
ENDBRANCH  46  49
ENDBRANCH  44  45
BRANCH  44  61
ATOM     61  CB  ARG A   5     -22.648 -10.518  -6.914  1.00  0.00     0.037 C 
BRANCH  61  62
ATOM     62  CG  ARG A   5     -21.461  -9.718  -7.457  1.00  0.00     0.024 C 
BRANCH  62  63
ATOM     63  CD  ARG A   5     -21.602  -9.480  -8.962  1.00  0.00     0.116 C 
BRANCH  63  64
ATOM     64  NE  ARG A   5     -21.190  -8.117  -9.281  1.00  0.00    -0.357 N 
ATOM     65  CZ  ARG A   5     -20.075  -7.775 -10.104  1.00  0.00     0.185 C 
ATOM     66  NH2 ARG A   5     -19.200  -8.775 -10.616  1.00  0.00    -0.370 N 
ATOM     67  H   UNL     1     -21.775  -7.342  -8.893  1.00  0.00     0.163 HD
ATOM     68  H   UNL     1     -19.097  -9.711 -10.171  1.00  0.00     0.159 HD
ATOM     69  H   UNL     1     -18.494  -8.518 -11.341  1.00  0.00     0.159 HD
BRANCH  65  70
ATOM     70  NH1 ARG A   5     -19.847  -6.533 -10.392  1.00  0.00    -0.270 NA
ATOM     71  H   UNL     1     -20.457  -5.762 -10.039  1.00  0.00     0.191 HD
ENDBRANCH  65  70
ENDBRANCH  63  64
ENDBRANCH  62  63
ENDBRANCH  61  62
ENDBRANCH  44  61
ENDBRANCH   3  44
TORSDOF 31
