REMARK SMILES CC(C)C[C@H](NC(=O)[C@@H](NC(=O)[C@@H](N)CO)C(C)C)C(=O)N[C@@H](Cc1c[nH]cn1)C(=O)N[C@@H](CCCNC(=N)N)C(=O)N[C@@H](CC(N)=O)C(=O)O
REMARK SMILES IDX 20 1 21 2 22 3 5 5 6 6 7 7 8 8 9 10 10 11 11 12 12 13 13 15
REMARK SMILES IDX 14 16 15 19 16 20 17 22 18 23 19 24 4 25 2 26 1 27 3 28
REMARK SMILES IDX 23 29 30 30 32 31 31 32 33 34 41 35 43 36 42 37 44 39 49 40
REMARK SMILES IDX 50 41 51 42 45 44 46 45 47 46 48 47 34 50 35 51 36 52 37 53
REMARK SMILES IDX 38 54 40 55 39 59 24 61 25 62 29 63 26 64 28 65 27 66
REMARK H PARENT 22 4 6 9 10 14 14 17 14 18 16 21 32 33 43 38 51 43 47 48 47 49
REMARK H PARENT 37 56 40 57 40 58 39 60 27 67
ROOT
ATOM      1  C   LEU A   3     -18.384 -10.554  -4.863  1.00  0.00     0.243 C 
ATOM      2  O   LEU A   3     -18.752 -11.409  -5.713  1.00  0.00    -0.273 OA
ATOM      3  N   HIS A   4     -18.837 -10.607  -3.513  1.00  0.00    -0.342 N 
ATOM      4  H   UNL     1     -18.551  -9.841  -2.860  1.00  0.00     0.164 HD
ENDROOT
BRANCH   1   5
ATOM      5  CA  LEU A   3     -17.454  -9.456  -5.242  1.00  0.00     0.171 C 
BRANCH   5   6
ATOM      6  N   LEU A   3     -16.212 -10.013  -5.732  1.00  0.00    -0.343 N 
ATOM      7  C   VAL A   2     -15.247 -10.542  -4.832  1.00  0.00     0.243 C 
ATOM      8  O   VAL A   2     -15.466 -10.569  -3.588  1.00  0.00    -0.273 OA
ATOM      9  H   UNL     1     -16.031 -10.054  -6.761  1.00  0.00     0.164 HD
BRANCH   7  10
ATOM     10  CA  VAL A   2     -13.979 -11.091  -5.395  1.00  0.00     0.173 C 
BRANCH  10  11
ATOM     11  N   VAL A   2     -12.855 -10.494  -4.682  1.00  0.00    -0.343 N 
ATOM     12  C   SER A   1     -12.605  -9.089  -4.719  1.00  0.00     0.239 C 
ATOM     13  O   SER A   1     -13.370  -8.319  -5.363  1.00  0.00    -0.273 OA
ATOM     14  H   UNL     1     -12.231 -11.099  -4.101  1.00  0.00     0.164 HD
BRANCH  12  15
ATOM     15  CA  SER A   1     -11.444  -8.541  -3.938  1.00  0.00     0.167 C 
BRANCH  15  16
ATOM     16  N   SER A   1     -10.849  -7.384  -4.610  1.00  0.00    -0.318 NA
ATOM     17  H   UNL     1     -11.577  -6.655  -4.795  1.00  0.00     0.119 HD
ATOM     18  H   UNL     1     -10.478  -7.692  -5.539  1.00  0.00     0.119 HD
ENDBRANCH  15  16
BRANCH  15  19
ATOM     19  CB  SER A   1     -11.850  -8.204  -2.489  1.00  0.00     0.184 C 
BRANCH  19  20
ATOM     20  OG  SER A   1     -12.053  -6.825  -2.319  1.00  0.00    -0.394 OA
ATOM     21  H   UNL     1     -11.169  -6.425  -2.109  1.00  0.00     0.210 HD
ENDBRANCH  19  20
ENDBRANCH  15  19
ENDBRANCH  12  15
ENDBRANCH  10  11
BRANCH  10  22
ATOM     22  CB  VAL A   2     -13.955 -12.638  -5.305  1.00  0.00     0.015 C 
ATOM     23  CG1 VAL A   2     -12.822 -13.207  -6.164  1.00  0.00     0.010 C 
ATOM     24  CG2 VAL A   2     -15.280 -13.280  -5.763  1.00  0.00     0.010 C 
ENDBRANCH  10  22
ENDBRANCH   7  10
ENDBRANCH   5   6
BRANCH   5  25
ATOM     25  CB  LEU A   3     -18.102  -8.526  -6.273  1.00  0.00     0.038 C 
BRANCH  25  26
ATOM     26  CG  LEU A   3     -17.544  -7.091  -6.222  1.00  0.00    -0.015 C 
ATOM     27  CD1 LEU A   3     -18.189  -6.263  -7.337  1.00  0.00     0.007 C 
ATOM     28  CD2 LEU A   3     -17.812  -6.422  -4.860  1.00  0.00     0.007 C 
ENDBRANCH  25  26
ENDBRANCH   5  25
ENDBRANCH   1   5
BRANCH   3  29
ATOM     29  CA  HIS A   4     -19.821 -11.562  -3.039  1.00  0.00     0.177 C 
BRANCH  29  30
ATOM     30  C   HIS A   4     -21.169 -11.065  -3.458  1.00  0.00     0.243 C 
ATOM     31  N   ARG A   5     -21.502 -11.143  -4.839  1.00  0.00    -0.343 N 
ATOM     32  O   HIS A   4     -21.969 -10.545  -2.633  1.00  0.00    -0.273 OA
ATOM     33  H   UNL     1     -21.062 -11.907  -5.399  1.00  0.00     0.164 HD
BRANCH  31  34
ATOM     34  CA  ARG A   5     -22.677 -10.498  -5.385  1.00  0.00     0.171 C 
BRANCH  34  35
ATOM     35  C   ARG A   5     -23.896 -11.195  -4.884  1.00  0.00     0.243 C 
ATOM     36  N   ASN A   6     -24.981 -10.403  -4.433  1.00  0.00    -0.341 N 
ATOM     37  O   ARG A   5     -23.965 -12.455  -4.867  1.00  0.00    -0.273 OA
ATOM     38  H   UNL     1     -24.930  -9.364  -4.552  1.00  0.00     0.164 HD
BRANCH  36  39
ATOM     39  CA  ASN A   6     -26.189 -10.994  -3.883  1.00  0.00     0.201 C 
BRANCH  39  40
ATOM     40  C   ASN A   6     -27.052 -11.522  -4.997  1.00  0.00     0.326 C 
ATOM     41  O   ASN A   6     -27.151 -10.892  -6.084  1.00  0.00    -0.250 OA
BRANCH  40  42
ATOM     42  OXT ASN A   6     -27.772 -12.698  -4.811  1.00  0.00    -0.480 OA
ATOM     43  H   UNL     1     -28.369 -13.063  -5.543  1.00  0.00     0.296 HD
ENDBRANCH  40  42
ENDBRANCH  39  40
BRANCH  39  44
ATOM     44  CB  ASN A   6     -26.929  -9.934  -3.062  1.00  0.00     0.136 C 
BRANCH  44  45
ATOM     45  CG  ASN A   6     -28.019 -10.549  -2.252  1.00  0.00     0.220 C 
ATOM     46  ND2 ASN A   6     -27.701 -11.242  -1.053  1.00  0.00    -0.370 N 
ATOM     47  OD1 ASN A   6     -29.213 -10.483  -2.643  1.00  0.00    -0.275 OA
ATOM     48  H   UNL     1     -28.456 -11.688  -0.487  1.00  0.00     0.159 HD
ATOM     49  H   UNL     1     -26.712 -11.315  -0.725  1.00  0.00     0.159 HD
ENDBRANCH  44  45
ENDBRANCH  39  44
ENDBRANCH  36  39
ENDBRANCH  34  35
BRANCH  34  50
ATOM     50  CB  ARG A   5     -22.647 -10.519  -6.914  1.00  0.00     0.037 C 
BRANCH  50  51
ATOM     51  CG  ARG A   5     -21.460  -9.719  -7.458  1.00  0.00     0.024 C 
BRANCH  51  52
ATOM     52  CD  ARG A   5     -21.602  -9.480  -8.962  1.00  0.00     0.116 C 
BRANCH  52  53
ATOM     53  NE  ARG A   5     -21.190  -8.117  -9.282  1.00  0.00    -0.357 N 
ATOM     54  CZ  ARG A   5     -20.075  -7.775 -10.105  1.00  0.00     0.185 C 
ATOM     55  NH2 ARG A   5     -19.200  -8.774 -10.616  1.00  0.00    -0.370 N 
ATOM     56  H   UNL     1     -21.775  -7.342  -8.893  1.00  0.00     0.163 HD
ATOM     57  H   UNL     1     -19.097  -9.711 -10.171  1.00  0.00     0.159 HD
ATOM     58  H   UNL     1     -18.494  -8.517 -11.341  1.00  0.00     0.159 HD
BRANCH  54  59
ATOM     59  NH1 ARG A   5     -19.847  -6.533 -10.392  1.00  0.00    -0.270 NA
ATOM     60  H   UNL     1     -20.457  -5.762 -10.039  1.00  0.00     0.191 HD
ENDBRANCH  54  59
ENDBRANCH  52  53
ENDBRANCH  51  52
ENDBRANCH  50  51
ENDBRANCH  34  50
ENDBRANCH  31  34
ENDBRANCH  29  30
BRANCH  29  61
ATOM     61  CB  HIS A   4     -19.671 -11.711  -1.515  1.00  0.00     0.093 C 
BRANCH  61  62
ATOM     62  CG  HIS A   4     -20.336 -12.945  -0.991  1.00  0.00     0.061 A 
ATOM     63  ND1 HIS A   4     -19.792 -14.177  -1.051  1.00  0.00    -0.242 NA
ATOM     64  CD2 HIS A   4     -21.606 -13.019  -0.464  1.00  0.00     0.107 A 
ATOM     65  CE1 HIS A   4     -20.749 -14.979  -0.536  1.00  0.00     0.196 A 
ATOM     66  NE2 HIS A   4     -21.856 -14.304  -0.174  1.00  0.00    -0.351 N 
ATOM     67  H   UNL     1     -22.730 -14.699   0.238  1.00  0.00     0.167 HD
ENDBRANCH  61  62
ENDBRANCH  29  61
ENDBRANCH   3  29
TORSDOF 27
