REMARK SMILES CC(C)C[C@H](NC(=O)[C@@H]1CCCN1C(=O)[C@H](CCCCN)NC(=O)[C@@H](N)CO)C(=O)N[C@@H](CCCNC(=N)N)C(=O)N[C@@H](CC(N)=O)C(=O)O
REMARK SMILES IDX 7 1 8 2 6 3 9 5 13 6 12 7 10 8 11 9 14 10 15 11 16 12 22 13
REMARK SMILES IDX 23 14 24 15 25 17 26 18 27 21 28 22 17 24 18 25 19 26 20 27
REMARK SMILES IDX 21 28 5 31 29 32 31 33 30 34 32 36 40 37 42 38 41 39 43 41
REMARK SMILES IDX 48 42 49 43 50 44 44 46 45 47 46 48 47 49 33 52 34 53 35 54
REMARK SMILES IDX 36 55 37 56 39 57 38 61 4 63 2 64 1 65 3 66
REMARK H PARENT 6 4 22 16 26 19 26 20 28 23 21 29 21 30 31 35 42 40 50 45
REMARK H PARENT 46 50 46 51 36 58 39 59 39 60 38 62
ROOT
ATOM      1  C   PRO A   3     -18.362 -10.548  -4.892  1.00  0.00     0.243 C 
ATOM      2  O   PRO A   3     -18.762 -11.407  -5.722  1.00  0.00    -0.273 OA
ATOM      3  N   LEU A   4     -18.821 -10.568  -3.543  1.00  0.00    -0.343 N 
ATOM      4  H   UNL     1     -18.523  -9.789  -2.911  1.00  0.00     0.164 HD
ENDROOT
BRANCH   1   5
ATOM      5  CA  PRO A   3     -17.420  -9.455  -5.309  1.00  0.00     0.174 C 
ATOM      6  N   PRO A   3     -16.885  -9.675  -6.648  1.00  0.00    -0.329 N 
ATOM      7  CD  PRO A   3     -17.116  -8.547  -7.534  1.00  0.00     0.120 C 
ATOM      8  CB  PRO A   3     -18.155  -8.112  -5.377  1.00  0.00     0.037 C 
ATOM      9  CG  PRO A   3     -17.689  -7.439  -6.664  1.00  0.00     0.024 C 
BRANCH   6  10
ATOM     10  C   LYS A   2     -16.087 -10.821  -7.006  1.00  0.00     0.245 C 
ATOM     11  O   LYS A   2     -15.652 -11.581  -6.097  1.00  0.00    -0.272 OA
BRANCH  10  12
ATOM     12  CA  LYS A   2     -15.838 -11.190  -8.451  1.00  0.00     0.171 C 
BRANCH  12  13
ATOM     13  N   LYS A   2     -14.467 -11.690  -8.593  1.00  0.00    -0.343 N 
ATOM     14  C   SER A   1     -13.390 -10.871  -9.072  1.00  0.00     0.239 C 
ATOM     15  O   SER A   1     -13.584  -9.651  -9.334  1.00  0.00    -0.273 OA
ATOM     16  H   UNL     1     -14.244 -12.646  -8.234  1.00  0.00     0.164 HD
BRANCH  14  17
ATOM     17  CA  SER A   1     -12.017 -11.462  -9.259  1.00  0.00     0.167 C 
BRANCH  17  18
ATOM     18  N   SER A   1     -11.527 -11.157 -10.604  1.00  0.00    -0.318 NA
ATOM     19  H   UNL     1     -10.618 -11.654 -10.747  1.00  0.00     0.119 HD
ATOM     20  H   UNL     1     -12.191 -11.573 -11.298  1.00  0.00     0.119 HD
ENDBRANCH  17  18
BRANCH  17  21
ATOM     21  CB  SER A   1     -11.061 -10.895  -8.197  1.00  0.00     0.184 C 
BRANCH  21  22
ATOM     22  OG  SER A   1      -9.809 -11.522  -8.271  1.00  0.00    -0.394 OA
ATOM     23  H   UNL     1      -9.916 -12.419  -7.860  1.00  0.00     0.210 HD
ENDBRANCH  21  22
ENDBRANCH  17  21
ENDBRANCH  14  17
ENDBRANCH  12  13
BRANCH  12  24
ATOM     24  CB  LYS A   2     -16.858 -12.259  -8.900  1.00  0.00     0.035 C 
BRANCH  24  25
ATOM     25  CG  LYS A   2     -17.048 -12.342 -10.428  1.00  0.00     0.004 C 
BRANCH  25  26
ATOM     26  CD  LYS A   2     -15.812 -12.788 -11.228  1.00  0.00     0.015 C 
BRANCH  26  27
ATOM     27  CE  LYS A   2     -15.371 -14.225 -10.903  1.00  0.00     0.077 C 
BRANCH  27  28
ATOM     28  NZ  LYS A   2     -14.256 -14.640 -11.751  1.00  0.00    -0.330 NA
ATOM     29  H   UNL     1     -13.460 -13.975 -11.610  1.00  0.00     0.118 HD
ATOM     30  H   UNL     1     -14.549 -14.577 -12.753  1.00  0.00     0.118 HD
ENDBRANCH  27  28
ENDBRANCH  26  27
ENDBRANCH  25  26
ENDBRANCH  24  25
ENDBRANCH  12  24
ENDBRANCH  10  12
ENDBRANCH   6  10
ENDBRANCH   1   5
BRANCH   3  31
ATOM     31  CA  LEU A   4     -19.801 -11.529  -3.060  1.00  0.00     0.171 C 
BRANCH  31  32
ATOM     32  C   LEU A   4     -21.159 -11.051  -3.466  1.00  0.00     0.243 C 
ATOM     33  N   ARG A   5     -21.502 -11.141  -4.842  1.00  0.00    -0.343 N 
ATOM     34  O   LEU A   4     -21.963 -10.547  -2.634  1.00  0.00    -0.273 OA
ATOM     35  H   UNL     1     -21.068 -11.910  -5.400  1.00  0.00     0.164 HD
BRANCH  33  36
ATOM     36  CA  ARG A   5     -22.677 -10.496  -5.386  1.00  0.00     0.171 C 
BRANCH  36  37
ATOM     37  C   ARG A   5     -23.896 -11.194  -4.885  1.00  0.00     0.243 C 
ATOM     38  N   ASN A   6     -24.981 -10.402  -4.433  1.00  0.00    -0.341 N 
ATOM     39  O   ARG A   5     -23.964 -12.454  -4.867  1.00  0.00    -0.273 OA
ATOM     40  H   UNL     1     -24.930  -9.364  -4.553  1.00  0.00     0.164 HD
BRANCH  38  41
ATOM     41  CA  ASN A   6     -26.189 -10.994  -3.883  1.00  0.00     0.201 C 
BRANCH  41  42
ATOM     42  C   ASN A   6     -27.052 -11.522  -4.997  1.00  0.00     0.326 C 
ATOM     43  O   ASN A   6     -27.151 -10.892  -6.084  1.00  0.00    -0.250 OA
BRANCH  42  44
ATOM     44  OXT ASN A   6     -27.772 -12.698  -4.811  1.00  0.00    -0.480 OA
ATOM     45  H   UNL     1     -28.369 -13.063  -5.543  1.00  0.00     0.296 HD
ENDBRANCH  42  44
ENDBRANCH  41  42
BRANCH  41  46
ATOM     46  CB  ASN A   6     -26.929  -9.934  -3.062  1.00  0.00     0.136 C 
BRANCH  46  47
ATOM     47  CG  ASN A   6     -28.019 -10.549  -2.252  1.00  0.00     0.220 C 
ATOM     48  ND2 ASN A   6     -27.701 -11.241  -1.054  1.00  0.00    -0.370 N 
ATOM     49  OD1 ASN A   6     -29.213 -10.484  -2.643  1.00  0.00    -0.275 OA
ATOM     50  H   UNL     1     -28.456 -11.688  -0.488  1.00  0.00     0.159 HD
ATOM     51  H   UNL     1     -26.712 -11.315  -0.725  1.00  0.00     0.159 HD
ENDBRANCH  46  47
ENDBRANCH  41  46
ENDBRANCH  38  41
ENDBRANCH  36  37
BRANCH  36  52
ATOM     52  CB  ARG A   5     -22.645 -10.516  -6.914  1.00  0.00     0.037 C 
BRANCH  52  53
ATOM     53  CG  ARG A   5     -21.454  -9.719  -7.457  1.00  0.00     0.024 C 
BRANCH  53  54
ATOM     54  CD  ARG A   5     -21.601  -9.480  -8.961  1.00  0.00     0.116 C 
BRANCH  54  55
ATOM     55  NE  ARG A   5     -21.188  -8.119  -9.283  1.00  0.00    -0.357 N 
ATOM     56  CZ  ARG A   5     -20.072  -7.775 -10.105  1.00  0.00     0.185 C 
ATOM     57  NH2 ARG A   5     -19.207  -8.774 -10.635  1.00  0.00    -0.370 N 
ATOM     58  H   UNL     1     -21.770  -7.343  -8.892  1.00  0.00     0.163 HD
ATOM     59  H   UNL     1     -19.149  -9.738 -10.247  1.00  0.00     0.159 HD
ATOM     60  H   UNL     1     -18.479  -8.506 -11.334  1.00  0.00     0.159 HD
BRANCH  56  61
ATOM     61  NH1 ARG A   5     -19.838  -6.532 -10.380  1.00  0.00    -0.270 NA
ATOM     62  H   UNL     1     -20.442  -5.761 -10.016  1.00  0.00     0.191 HD
ENDBRANCH  56  61
ENDBRANCH  54  55
ENDBRANCH  53  54
ENDBRANCH  52  53
ENDBRANCH  36  52
ENDBRANCH  33  36
ENDBRANCH  31  32
BRANCH  31  63
ATOM     63  CB  LEU A   4     -19.640 -11.682  -1.538  1.00  0.00     0.038 C 
BRANCH  63  64
ATOM     64  CG  LEU A   4     -20.291 -12.947  -0.951  1.00  0.00    -0.015 C 
ATOM     65  CD1 LEU A   4     -19.611 -14.227  -1.464  1.00  0.00     0.007 C 
ATOM     66  CD2 LEU A   4     -20.195 -12.893   0.579  1.00  0.00     0.007 C 
ENDBRANCH  63  64
ENDBRANCH  31  63
ENDBRANCH   3  31
TORSDOF 29
