REMARK SMILES CC(C)C[C@H](NC(=O)[C@H](Cc1ccccc1)NC(=O)[C@@H](N)CO)C(=O)N[C@@H](CCCCN)C(=O)N[C@@H](CCCNC(=N)N)C(=O)N[C@@H](CCCCN)C(=O)O
REMARK SMILES IDX 33 1 34 2 35 3 27 5 26 6 24 7 25 8 5 10 6 11 7 12 8 13 9 15
REMARK SMILES IDX 17 16 18 17 19 18 20 20 21 21 22 24 23 25 10 27 11 28 12 29
REMARK SMILES IDX 16 30 13 31 15 32 14 33 4 34 2 35 1 36 3 37 28 38 29 39
REMARK SMILES IDX 30 40 31 41 32 42 36 45 44 46 46 47 45 48 47 50 53 51 54 52
REMARK SMILES IDX 55 53 48 55 49 56 50 57 51 58 52 59 37 62 38 63 39 64 40 65
REMARK SMILES IDX 41 66 43 67 42 71
REMARK H PARENT 35 4 26 9 6 14 17 19 21 22 21 23 23 26 32 43 32 44 46 49 55 54
REMARK H PARENT 52 60 52 61 40 68 43 69 43 70 42 72
ROOT
ATOM      1  C   LYS A   4     -21.173 -11.058  -3.464  1.00  0.00     0.243 C 
ATOM      2  O   LYS A   4     -21.978 -10.546  -2.638  1.00  0.00    -0.273 OA
ATOM      3  N   ARG A   5     -21.505 -11.138  -4.843  1.00  0.00    -0.343 N 
ATOM      4  H   UNL     1     -21.063 -11.901  -5.404  1.00  0.00     0.164 HD
ENDROOT
BRANCH   1   5
ATOM      5  CA  LYS A   4     -19.822 -11.542  -3.048  1.00  0.00     0.171 C 
BRANCH   5   6
ATOM      6  N   LYS A   4     -18.848 -10.582  -3.519  1.00  0.00    -0.343 N 
ATOM      7  C   LEU A   3     -18.385 -10.546  -4.865  1.00  0.00     0.243 C 
ATOM      8  O   LEU A   3     -18.750 -11.406  -5.711  1.00  0.00    -0.273 OA
ATOM      9  H   UNL     1     -18.591  -9.794  -2.879  1.00  0.00     0.164 HD
BRANCH   7  10
ATOM     10  CA  LEU A   3     -17.452  -9.454  -5.244  1.00  0.00     0.171 C 
BRANCH  10  11
ATOM     11  N   LEU A   3     -16.215 -10.021  -5.731  1.00  0.00    -0.343 N 
ATOM     12  C   PHE A   2     -15.252 -10.549  -4.827  1.00  0.00     0.243 C 
ATOM     13  O   PHE A   2     -15.473 -10.578  -3.585  1.00  0.00    -0.273 OA
ATOM     14  H   UNL     1     -16.038 -10.071  -6.761  1.00  0.00     0.164 HD
BRANCH  12  15
ATOM     15  CA  PHE A   2     -13.974 -11.063  -5.385  1.00  0.00     0.175 C 
BRANCH  15  16
ATOM     16  N   PHE A   2     -12.856 -10.485  -4.661  1.00  0.00    -0.343 N 
ATOM     17  C   SER A   1     -12.601  -9.082  -4.707  1.00  0.00     0.239 C 
ATOM     18  O   SER A   1     -13.365  -8.313  -5.355  1.00  0.00    -0.273 OA
ATOM     19  H   UNL     1     -12.219 -11.101  -4.105  1.00  0.00     0.164 HD
BRANCH  17  20
ATOM     20  CA  SER A   1     -11.437  -8.537  -3.934  1.00  0.00     0.167 C 
BRANCH  20  21
ATOM     21  N   SER A   1     -10.843  -7.380  -4.606  1.00  0.00    -0.318 NA
ATOM     22  H   UNL     1     -10.468  -7.690  -5.533  1.00  0.00     0.119 HD
ATOM     23  H   UNL     1     -11.570  -6.653  -4.797  1.00  0.00     0.119 HD
ENDBRANCH  20  21
BRANCH  20  24
ATOM     24  CB  SER A   1     -11.837  -8.200  -2.486  1.00  0.00     0.184 C 
BRANCH  24  25
ATOM     25  OG  SER A   1     -12.063  -6.826  -2.322  1.00  0.00    -0.394 OA
ATOM     26  H   UNL     1     -12.977  -6.649  -2.668  1.00  0.00     0.210 HD
ENDBRANCH  24  25
ENDBRANCH  20  24
ENDBRANCH  17  20
ENDBRANCH  15  16
BRANCH  15  27
ATOM     27  CB  PHE A   2     -13.963 -12.598  -5.326  1.00  0.00     0.070 C 
BRANCH  27  28
ATOM     28  CG  PHE A   2     -12.882 -13.201  -6.184  1.00  0.00    -0.045 A 
ATOM     29  CD1 PHE A   2     -12.722 -12.808  -7.527  1.00  0.00     0.004 A 
ATOM     30  CD2 PHE A   2     -12.090 -14.245  -5.683  1.00  0.00     0.004 A 
ATOM     31  CE1 PHE A   2     -11.747 -13.400  -8.324  1.00  0.00     0.000 A 
ATOM     32  CE2 PHE A   2     -11.132 -14.854  -6.496  1.00  0.00     0.000 A 
ATOM     33  CZ  PHE A   2     -10.954 -14.425  -7.812  1.00  0.00     0.000 A 
ENDBRANCH  27  28
ENDBRANCH  15  27
ENDBRANCH  12  15
ENDBRANCH  10  11
BRANCH  10  34
ATOM     34  CB  LEU A   3     -18.098  -8.525  -6.277  1.00  0.00     0.038 C 
BRANCH  34  35
ATOM     35  CG  LEU A   3     -17.542  -7.089  -6.223  1.00  0.00    -0.015 C 
ATOM     36  CD1 LEU A   3     -18.188  -6.262  -7.337  1.00  0.00     0.007 C 
ATOM     37  CD2 LEU A   3     -17.813  -6.422  -4.860  1.00  0.00     0.007 C 
ENDBRANCH  34  35
ENDBRANCH  10  34
ENDBRANCH   7  10
ENDBRANCH   5   6
BRANCH   5  38
ATOM     38  CB  LYS A   4     -19.674 -11.686  -1.523  1.00  0.00     0.035 C 
BRANCH  38  39
ATOM     39  CG  LYS A   4     -20.295 -12.968  -0.961  1.00  0.00     0.004 C 
BRANCH  39  40
ATOM     40  CD  LYS A   4     -19.620 -14.262  -1.451  1.00  0.00     0.015 C 
BRANCH  40  41
ATOM     41  CE  LYS A   4     -18.111 -14.321  -1.176  1.00  0.00     0.077 C 
BRANCH  41  42
ATOM     42  NZ  LYS A   4     -17.612 -15.672  -1.407  1.00  0.00    -0.330 NA
ATOM     43  H   UNL     1     -17.657 -15.866  -2.434  1.00  0.00     0.118 HD
ATOM     44  H   UNL     1     -16.599 -15.686  -1.148  1.00  0.00     0.118 HD
ENDBRANCH  41  42
ENDBRANCH  40  41
ENDBRANCH  39  40
ENDBRANCH  38  39
ENDBRANCH   5  38
ENDBRANCH   1   5
BRANCH   3  45
ATOM     45  CA  ARG A   5     -22.680 -10.495  -5.388  1.00  0.00     0.171 C 
BRANCH  45  46
ATOM     46  C   ARG A   5     -23.897 -11.194  -4.887  1.00  0.00     0.243 C 
ATOM     47  N   LYS A   6     -24.983 -10.406  -4.429  1.00  0.00    -0.341 N 
ATOM     48  O   ARG A   5     -23.963 -12.455  -4.871  1.00  0.00    -0.273 OA
ATOM     49  H   UNL     1     -24.938  -9.367  -4.545  1.00  0.00     0.164 HD
BRANCH  47  50
ATOM     50  CA  LYS A   6     -26.186 -11.009  -3.881  1.00  0.00     0.192 C 
BRANCH  50  51
ATOM     51  C   LYS A   6     -27.049 -11.528  -5.001  1.00  0.00     0.326 C 
ATOM     52  O   LYS A   6     -27.154 -10.884  -6.079  1.00  0.00    -0.250 OA
BRANCH  51  53
ATOM     53  OXT LYS A   6     -27.747 -12.720  -4.836  1.00  0.00    -0.480 OA
ATOM     54  H   UNL     1     -28.338 -13.082  -5.574  1.00  0.00     0.296 HD
ENDBRANCH  51  53
ENDBRANCH  50  51
BRANCH  50  55
ATOM     55  CB  LYS A   6     -26.925  -9.966  -3.032  1.00  0.00     0.037 C 
BRANCH  55  56
ATOM     56  CG  LYS A   6     -28.080 -10.557  -2.215  1.00  0.00     0.004 C 
BRANCH  56  57
ATOM     57  CD  LYS A   6     -27.605 -11.412  -1.029  1.00  0.00     0.015 C 
BRANCH  57  58
ATOM     58  CE  LYS A   6     -28.789 -11.832  -0.146  1.00  0.00     0.077 C 
BRANCH  58  59
ATOM     59  NZ  LYS A   6     -28.349 -12.658   0.977  1.00  0.00    -0.330 NA
ATOM     60  H   UNL     1     -27.867 -13.508   0.603  1.00  0.00     0.118 HD
ATOM     61  H   UNL     1     -27.652 -12.118   1.540  1.00  0.00     0.118 HD
ENDBRANCH  58  59
ENDBRANCH  57  58
ENDBRANCH  56  57
ENDBRANCH  55  56
ENDBRANCH  50  55
ENDBRANCH  47  50
ENDBRANCH  45  46
BRANCH  45  62
ATOM     62  CB  ARG A   5     -22.649 -10.517  -6.917  1.00  0.00     0.037 C 
BRANCH  62  63
ATOM     63  CG  ARG A   5     -21.462  -9.717  -7.459  1.00  0.00     0.024 C 
BRANCH  63  64
ATOM     64  CD  ARG A   5     -21.602  -9.477  -8.964  1.00  0.00     0.116 C 
BRANCH  64  65
ATOM     65  NE  ARG A   5     -21.186  -8.116  -9.284  1.00  0.00    -0.357 N 
ATOM     66  CZ  ARG A   5     -20.072  -7.777 -10.106  1.00  0.00     0.185 C 
ATOM     67  NH2 ARG A   5     -19.198  -8.780 -10.616  1.00  0.00    -0.370 N 
ATOM     68  H   UNL     1     -21.765  -7.334  -8.899  1.00  0.00     0.163 HD
ATOM     69  H   UNL     1     -18.499  -8.537 -11.353  1.00  0.00     0.159 HD
ATOM     70  H   UNL     1     -19.092  -9.711 -10.162  1.00  0.00     0.159 HD
BRANCH  66  71
ATOM     71  NH1 ARG A   5     -19.856  -6.531 -10.387  1.00  0.00    -0.270 NA
ATOM     72  H   UNL     1     -19.051  -6.233 -10.981  1.00  0.00     0.191 HD
ENDBRANCH  66  71
ENDBRANCH  64  65
ENDBRANCH  63  64
ENDBRANCH  62  63
ENDBRANCH  45  62
ENDBRANCH   3  45
TORSDOF 34
