REMARK SMILES N=C(N)NCCC[C@H](NC(=O)CNC(=O)[C@H](CCCNC(=N)N)NC(=O)[C@H](Cc1ccccc1)NC(=O)[C@@H](N)CO)C(=O)N[C@@H](CC(N)=O)C(=O)O
REMARK SMILES IDX 14 1 15 2 13 3 16 5 24 6 25 7 26 8 27 10 35 11 36 12 37 13
REMARK SMILES IDX 38 15 39 16 40 19 41 20 28 22 29 23 30 24 34 25 31 26 33 27
REMARK SMILES IDX 32 28 17 29 18 30 19 31 20 32 21 33 23 34 22 38 12 40 10 41
REMARK SMILES IDX 9 42 11 43 8 45 42 46 44 47 43 48 45 50 50 51 51 52 52 53
REMARK SMILES IDX 46 55 47 56 48 57 49 58 7 61 6 62 5 63 4 64 2 65 3 66 1 70
REMARK H PARENT 13 4 24 9 35 14 39 17 39 18 41 21 20 35 23 36 23 37 22 39 9 44
REMARK H PARENT 44 49 52 54 48 59 48 60 4 67 3 68 3 69 1 71
ROOT
ATOM      1  C   ARG A   3     -18.390 -10.547  -4.849  1.00  0.00     0.243 C 
ATOM      2  O   ARG A   3     -18.760 -11.394  -5.708  1.00  0.00    -0.273 OA
ATOM      3  N   GLY A   4     -18.816 -10.639  -3.490  1.00  0.00    -0.345 N 
ATOM      4  H   UNL     1     -18.403  -9.996  -2.777  1.00  0.00     0.164 HD
ENDROOT
BRANCH   1   5
ATOM      5  CA  ARG A   3     -17.466  -9.438  -5.229  1.00  0.00     0.171 C 
BRANCH   5   6
ATOM      6  N   ARG A   3     -16.220  -9.999  -5.716  1.00  0.00    -0.343 N 
ATOM      7  C   PHE A   2     -15.258 -10.542  -4.820  1.00  0.00     0.243 C 
ATOM      8  O   PHE A   2     -15.476 -10.577  -3.578  1.00  0.00    -0.273 OA
ATOM      9  H   UNL     1     -16.033 -10.023  -6.745  1.00  0.00     0.164 HD
BRANCH   7  10
ATOM     10  CA  PHE A   2     -13.980 -11.059  -5.383  1.00  0.00     0.175 C 
BRANCH  10  11
ATOM     11  N   PHE A   2     -12.857 -10.483  -4.663  1.00  0.00    -0.343 N 
ATOM     12  C   SER A   1     -12.598  -9.080  -4.708  1.00  0.00     0.239 C 
ATOM     13  O   SER A   1     -13.360  -8.310  -5.356  1.00  0.00    -0.273 OA
ATOM     14  H   UNL     1     -12.222 -11.100  -4.107  1.00  0.00     0.164 HD
BRANCH  12  15
ATOM     15  CA  SER A   1     -11.438  -8.536  -3.932  1.00  0.00     0.167 C 
BRANCH  15  16
ATOM     16  N   SER A   1     -10.850  -7.391  -4.628  1.00  0.00    -0.318 NA
ATOM     17  H   UNL     1     -10.013  -7.061  -4.095  1.00  0.00     0.119 HD
ATOM     18  H   UNL     1     -11.533  -6.600  -4.684  1.00  0.00     0.119 HD
ENDBRANCH  15  16
BRANCH  15  19
ATOM     19  CB  SER A   1     -11.844  -8.202  -2.480  1.00  0.00     0.184 C 
BRANCH  19  20
ATOM     20  OG  SER A   1     -12.062  -6.825  -2.310  1.00  0.00    -0.394 OA
ATOM     21  H   UNL     1     -11.201  -6.425  -2.019  1.00  0.00     0.210 HD
ENDBRANCH  19  20
ENDBRANCH  15  19
ENDBRANCH  12  15
ENDBRANCH  10  11
BRANCH  10  22
ATOM     22  CB  PHE A   2     -13.966 -12.595  -5.326  1.00  0.00     0.070 C 
BRANCH  22  23
ATOM     23  CG  PHE A   2     -12.883 -13.198  -6.183  1.00  0.00    -0.045 A 
ATOM     24  CD1 PHE A   2     -12.723 -12.806  -7.526  1.00  0.00     0.004 A 
ATOM     25  CD2 PHE A   2     -12.092 -14.243  -5.682  1.00  0.00     0.004 A 
ATOM     26  CE1 PHE A   2     -11.747 -13.399  -8.324  1.00  0.00     0.000 A 
ATOM     27  CE2 PHE A   2     -11.134 -14.853  -6.495  1.00  0.00     0.000 A 
ATOM     28  CZ  PHE A   2     -10.955 -14.424  -7.811  1.00  0.00     0.000 A 
ENDBRANCH  22  23
ENDBRANCH  10  22
ENDBRANCH   7  10
ENDBRANCH   5   6
BRANCH   5  29
ATOM     29  CB  ARG A   3     -18.115  -8.530  -6.278  1.00  0.00     0.037 C 
BRANCH  29  30
ATOM     30  CG  ARG A   3     -17.519  -7.120  -6.256  1.00  0.00     0.024 C 
BRANCH  30  31
ATOM     31  CD  ARG A   3     -18.190  -6.247  -7.317  1.00  0.00     0.116 C 
BRANCH  31  32
ATOM     32  NE  ARG A   3     -17.663  -4.884  -7.270  1.00  0.00    -0.357 N 
ATOM     33  CZ  ARG A   3     -16.356  -4.491  -7.731  1.00  0.00     0.185 C 
ATOM     34  NH2 ARG A   3     -15.907  -3.155  -7.501  1.00  0.00    -0.370 N 
ATOM     35  H   UNL     1     -18.287  -4.141  -6.882  1.00  0.00     0.163 HD
ATOM     36  H   UNL     1     -16.512  -2.472  -6.994  1.00  0.00     0.159 HD
ATOM     37  H   UNL     1     -14.967  -2.846  -7.833  1.00  0.00     0.159 HD
BRANCH  33  38
ATOM     38  NH1 ARG A   3     -15.580  -5.313  -8.367  1.00  0.00    -0.270 NA
ATOM     39  H   UNL     1     -15.833  -6.300  -8.589  1.00  0.00     0.191 HD
ENDBRANCH  33  38
ENDBRANCH  31  32
ENDBRANCH  30  31
ENDBRANCH  29  30
ENDBRANCH   5  29
ENDBRANCH   1   5
BRANCH   3  40
ATOM     40  CA  GLY A   4     -19.837 -11.565  -3.039  1.00  0.00     0.216 C 
BRANCH  40  41
ATOM     41  C   GLY A   4     -21.163 -11.055  -3.467  1.00  0.00     0.240 C 
ATOM     42  N   ARG A   5     -21.501 -11.138  -4.844  1.00  0.00    -0.343 N 
ATOM     43  O   GLY A   4     -21.960 -10.548  -2.631  1.00  0.00    -0.273 OA
ATOM     44  H   UNL     1     -21.067 -11.906  -5.402  1.00  0.00     0.164 HD
BRANCH  42  45
ATOM     45  CA  ARG A   5     -22.678 -10.496  -5.387  1.00  0.00     0.171 C 
BRANCH  45  46
ATOM     46  C   ARG A   5     -23.896 -11.194  -4.885  1.00  0.00     0.243 C 
ATOM     47  N   ASN A   6     -24.982 -10.402  -4.433  1.00  0.00    -0.341 N 
ATOM     48  O   ARG A   5     -23.964 -12.454  -4.867  1.00  0.00    -0.273 OA
ATOM     49  H   UNL     1     -24.931  -9.364  -4.553  1.00  0.00     0.164 HD
BRANCH  47  50
ATOM     50  CA  ASN A   6     -26.189 -10.994  -3.883  1.00  0.00     0.201 C 
BRANCH  50  51
ATOM     51  C   ASN A   6     -27.052 -11.522  -4.997  1.00  0.00     0.326 C 
ATOM     52  O   ASN A   6     -27.151 -10.892  -6.084  1.00  0.00    -0.250 OA
BRANCH  51  53
ATOM     53  OXT ASN A   6     -27.773 -12.698  -4.811  1.00  0.00    -0.480 OA
ATOM     54  H   UNL     1     -28.370 -13.063  -5.543  1.00  0.00     0.296 HD
ENDBRANCH  51  53
ENDBRANCH  50  51
BRANCH  50  55
ATOM     55  CB  ASN A   6     -26.929  -9.934  -3.062  1.00  0.00     0.136 C 
BRANCH  55  56
ATOM     56  CG  ASN A   6     -28.019 -10.549  -2.252  1.00  0.00     0.220 C 
ATOM     57  ND2 ASN A   6     -27.701 -11.241  -1.053  1.00  0.00    -0.370 N 
ATOM     58  OD1 ASN A   6     -29.213 -10.484  -2.643  1.00  0.00    -0.275 OA
ATOM     59  H   UNL     1     -26.713 -11.314  -0.724  1.00  0.00     0.159 HD
ATOM     60  H   UNL     1     -28.456 -11.688  -0.487  1.00  0.00     0.159 HD
ENDBRANCH  55  56
ENDBRANCH  50  55
ENDBRANCH  47  50
ENDBRANCH  45  46
BRANCH  45  61
ATOM     61  CB  ARG A   5     -22.649 -10.517  -6.916  1.00  0.00     0.037 C 
BRANCH  61  62
ATOM     62  CG  ARG A   5     -21.461  -9.718  -7.459  1.00  0.00     0.024 C 
BRANCH  62  63
ATOM     63  CD  ARG A   5     -21.602  -9.479  -8.963  1.00  0.00     0.116 C 
BRANCH  63  64
ATOM     64  NE  ARG A   5     -21.189  -8.117  -9.282  1.00  0.00    -0.357 N 
ATOM     65  CZ  ARG A   5     -20.075  -7.774 -10.106  1.00  0.00     0.185 C 
ATOM     66  NH2 ARG A   5     -19.200  -8.774 -10.616  1.00  0.00    -0.370 N 
ATOM     67  H   UNL     1     -21.774  -7.342  -8.893  1.00  0.00     0.163 HD
ATOM     68  H   UNL     1     -18.493  -8.517 -11.341  1.00  0.00     0.159 HD
ATOM     69  H   UNL     1     -19.096  -9.709 -10.170  1.00  0.00     0.159 HD
BRANCH  65  70
ATOM     70  NH1 ARG A   5     -19.848  -6.533 -10.394  1.00  0.00    -0.270 NA
ATOM     71  H   UNL     1     -20.458  -5.762 -10.041  1.00  0.00     0.191 HD
ENDBRANCH  65  70
ENDBRANCH  63  64
ENDBRANCH  62  63
ENDBRANCH  61  62
ENDBRANCH  45  61
ENDBRANCH  42  45
ENDBRANCH  40  41
ENDBRANCH   3  40
TORSDOF 29
