REMARK SMILES CC(C)C[C@H](NC(=O)[C@H](C)NC(=O)[C@@H](N)CO)C(=O)N[C@@H](CO)C(=O)N[C@@H](CCCNC(=N)N)C(=O)N[C@@H](CC(N)=O)C(=O)O
REMARK SMILES IDX 18 1 19 2 20 3 5 5 6 6 7 7 8 8 9 10 10 11 11 12 12 13 13 14
REMARK SMILES IDX 14 16 15 17 16 20 17 21 4 23 2 24 1 25 3 26 21 27 24 28
REMARK SMILES IDX 26 29 25 30 27 32 35 33 37 34 36 35 38 37 43 38 44 39 45 40
REMARK SMILES IDX 39 42 40 43 41 44 42 45 28 48 29 49 30 50 31 51 32 52 34 53
REMARK SMILES IDX 33 57 22 59 23 60
REMARK H PARENT 20 4 6 9 11 15 15 18 15 19 17 22 26 31 37 36 45 41 41 46 41 47
REMARK H PARENT 31 54 34 55 34 56 33 58 23 61
ROOT
ATOM      1  C   LEU A   3     -18.382 -10.556  -4.862  1.00  0.00     0.243 C 
ATOM      2  O   LEU A   3     -18.756 -11.406  -5.714  1.00  0.00    -0.273 OA
ATOM      3  N   SER A   4     -18.825 -10.618  -3.509  1.00  0.00    -0.340 N 
ATOM      4  H   UNL     1     -18.496  -9.884  -2.840  1.00  0.00     0.164 HD
ENDROOT
BRANCH   1   5
ATOM      5  CA  LEU A   3     -17.449  -9.460  -5.243  1.00  0.00     0.171 C 
BRANCH   5   6
ATOM      6  N   LEU A   3     -16.208 -10.023  -5.738  1.00  0.00    -0.343 N 
ATOM      7  C   ALA A   2     -15.248 -10.564  -4.839  1.00  0.00     0.242 C 
ATOM      8  O   ALA A   2     -15.467 -10.585  -3.595  1.00  0.00    -0.273 OA
ATOM      9  H   UNL     1     -16.017 -10.042  -6.765  1.00  0.00     0.164 HD
BRANCH   7  10
ATOM     10  CA  ALA A   2     -13.964 -11.085  -5.392  1.00  0.00     0.168 C 
ATOM     11  CB  ALA A   2     -13.926 -12.606  -5.288  1.00  0.00     0.041 C 
BRANCH  10  12
ATOM     12  N   ALA A   2     -12.850 -10.487  -4.672  1.00  0.00    -0.343 N 
ATOM     13  C   SER A   1     -12.599  -9.084  -4.709  1.00  0.00     0.239 C 
ATOM     14  O   SER A   1     -13.360  -8.311  -5.354  1.00  0.00    -0.273 OA
ATOM     15  H   UNL     1     -12.218 -11.096  -4.102  1.00  0.00     0.164 HD
BRANCH  13  16
ATOM     16  CA  SER A   1     -11.432  -8.545  -3.935  1.00  0.00     0.167 C 
BRANCH  16  17
ATOM     17  N   SER A   1     -10.866  -7.379  -4.611  1.00  0.00    -0.318 NA
ATOM     18  H   UNL     1     -10.004  -7.089  -4.095  1.00  0.00     0.119 HD
ATOM     19  H   UNL     1     -10.544  -7.674  -5.563  1.00  0.00     0.119 HD
ENDBRANCH  16  17
BRANCH  16  20
ATOM     20  CB  SER A   1     -11.844  -8.203  -2.489  1.00  0.00     0.184 C 
BRANCH  20  21
ATOM     21  OG  SER A   1     -12.064  -6.827  -2.332  1.00  0.00    -0.394 OA
ATOM     22  H   UNL     1     -12.952  -6.639  -2.734  1.00  0.00     0.210 HD
ENDBRANCH  20  21
ENDBRANCH  16  20
ENDBRANCH  13  16
ENDBRANCH  10  12
ENDBRANCH   7  10
ENDBRANCH   5   6
BRANCH   5  23
ATOM     23  CB  LEU A   3     -18.099  -8.528  -6.274  1.00  0.00     0.038 C 
BRANCH  23  24
ATOM     24  CG  LEU A   3     -17.543  -7.093  -6.222  1.00  0.00    -0.015 C 
ATOM     25  CD1 LEU A   3     -18.189  -6.265  -7.336  1.00  0.00     0.007 C 
ATOM     26  CD2 LEU A   3     -17.813  -6.424  -4.859  1.00  0.00     0.007 C 
ENDBRANCH  23  24
ENDBRANCH   5  23
ENDBRANCH   1   5
BRANCH   3  27
ATOM     27  CA  SER A   4     -19.827 -11.561  -3.047  1.00  0.00     0.197 C 
BRANCH  27  28
ATOM     28  C   SER A   4     -21.168 -11.055  -3.465  1.00  0.00     0.245 C 
ATOM     29  N   ARG A   5     -21.503 -11.137  -4.844  1.00  0.00    -0.342 N 
ATOM     30  O   SER A   4     -21.968 -10.540  -2.637  1.00  0.00    -0.273 OA
ATOM     31  H   UNL     1     -21.066 -11.904  -5.402  1.00  0.00     0.164 HD
BRANCH  29  32
ATOM     32  CA  ARG A   5     -22.679 -10.496  -5.388  1.00  0.00     0.171 C 
BRANCH  32  33
ATOM     33  C   ARG A   5     -23.897 -11.194  -4.885  1.00  0.00     0.243 C 
ATOM     34  N   ASN A   6     -24.982 -10.402  -4.433  1.00  0.00    -0.341 N 
ATOM     35  O   ARG A   5     -23.965 -12.454  -4.868  1.00  0.00    -0.273 OA
ATOM     36  H   UNL     1     -24.931  -9.364  -4.552  1.00  0.00     0.164 HD
BRANCH  34  37
ATOM     37  CA  ASN A   6     -26.189 -10.994  -3.883  1.00  0.00     0.201 C 
BRANCH  37  38
ATOM     38  C   ASN A   6     -27.053 -11.522  -4.997  1.00  0.00     0.326 C 
ATOM     39  O   ASN A   6     -27.151 -10.892  -6.084  1.00  0.00    -0.250 OA
BRANCH  38  40
ATOM     40  OXT ASN A   6     -27.773 -12.698  -4.811  1.00  0.00    -0.480 OA
ATOM     41  H   UNL     1     -28.370 -13.063  -5.543  1.00  0.00     0.296 HD
ENDBRANCH  38  40
ENDBRANCH  37  38
BRANCH  37  42
ATOM     42  CB  ASN A   6     -26.930  -9.934  -3.062  1.00  0.00     0.136 C 
BRANCH  42  43
ATOM     43  CG  ASN A   6     -28.019 -10.549  -2.252  1.00  0.00     0.220 C 
ATOM     44  ND2 ASN A   6     -27.701 -11.241  -1.053  1.00  0.00    -0.370 N 
ATOM     45  OD1 ASN A   6     -29.213 -10.484  -2.643  1.00  0.00    -0.275 OA
ATOM     46  H   UNL     1     -28.456 -11.688  -0.487  1.00  0.00     0.159 HD
ATOM     47  H   UNL     1     -26.713 -11.314  -0.724  1.00  0.00     0.159 HD
ENDBRANCH  42  43
ENDBRANCH  37  42
ENDBRANCH  34  37
ENDBRANCH  32  33
BRANCH  32  48
ATOM     48  CB  ARG A   5     -22.650 -10.518  -6.916  1.00  0.00     0.037 C 
BRANCH  48  49
ATOM     49  CG  ARG A   5     -21.461  -9.719  -7.459  1.00  0.00     0.024 C 
BRANCH  49  50
ATOM     50  CD  ARG A   5     -21.602  -9.480  -8.963  1.00  0.00     0.116 C 
BRANCH  50  51
ATOM     51  NE  ARG A   5     -21.190  -8.117  -9.282  1.00  0.00    -0.357 N 
ATOM     52  CZ  ARG A   5     -20.075  -7.775 -10.105  1.00  0.00     0.185 C 
ATOM     53  NH2 ARG A   5     -19.200  -8.774 -10.616  1.00  0.00    -0.370 N 
ATOM     54  H   UNL     1     -21.775  -7.342  -8.893  1.00  0.00     0.163 HD
ATOM     55  H   UNL     1     -18.494  -8.517 -11.342  1.00  0.00     0.159 HD
ATOM     56  H   UNL     1     -19.096  -9.710 -10.171  1.00  0.00     0.159 HD
BRANCH  52  57
ATOM     57  NH1 ARG A   5     -19.847  -6.533 -10.392  1.00  0.00    -0.270 NA
ATOM     58  H   UNL     1     -20.457  -5.762 -10.039  1.00  0.00     0.191 HD
ENDBRANCH  52  57
ENDBRANCH  50  51
ENDBRANCH  49  50
ENDBRANCH  48  49
ENDBRANCH  32  48
ENDBRANCH  29  32
ENDBRANCH  27  28
BRANCH  27  59
ATOM     59  CB  SER A   4     -19.718 -11.729  -1.527  1.00  0.00     0.191 C 
BRANCH  59  60
ATOM     60  OG  SER A   4     -18.452 -12.220  -1.175  1.00  0.00    -0.394 OA
ATOM     61  H   UNL     1     -18.446 -13.185  -1.408  1.00  0.00     0.210 HD
ENDBRANCH  59  60
ENDBRANCH  27  59
ENDBRANCH   3  27
TORSDOF 26
