REMARK SMILES C[C@H](NC(=O)[C@H](C)NC(=O)[C@H](Cc1ccccc1)NC(=O)[C@@H](N)CO)C(=O)N[C@@H](CCCNC(=N)N)C(=O)N[C@@H](CC(N)=O)C(=O)O
REMARK SMILES IDX 4 1 5 2 3 3 6 5 7 6 8 7 9 8 10 9 11 11 19 12 20 13 21 14
REMARK SMILES IDX 22 16 23 17 24 20 25 21 12 23 13 24 14 25 18 26 15 27 17 28
REMARK SMILES IDX 16 29 2 30 1 31 26 32 28 33 27 34 29 36 37 37 39 38 38 39
REMARK SMILES IDX 40 41 45 42 46 43 47 44 41 46 42 47 43 48 44 49 30 52 31 53
REMARK SMILES IDX 32 54 33 55 34 56 36 57 35 61
REMARK H PARENT 3 4 8 10 19 15 23 18 23 19 25 22 28 35 39 40 47 45 43 50 43 51
REMARK H PARENT 33 58 36 59 36 60 35 62
ROOT
ATOM      1  C   ALA A   3     -18.396 -10.526  -4.866  1.00  0.00     0.242 C 
ATOM      2  O   ALA A   3     -18.760 -11.389  -5.712  1.00  0.00    -0.273 OA
ATOM      3  N   ALA A   4     -18.819 -10.604  -3.508  1.00  0.00    -0.343 N 
ATOM      4  H   UNL     1     -18.458  -9.892  -2.832  1.00  0.00     0.164 HD
ENDROOT
BRANCH   1   5
ATOM      5  CA  ALA A   3     -17.461  -9.430  -5.256  1.00  0.00     0.168 C 
ATOM      6  CB  ALA A   3     -18.074  -8.538  -6.328  1.00  0.00     0.041 C 
BRANCH   5   7
ATOM      7  N   ALA A   3     -16.219 -10.010  -5.726  1.00  0.00    -0.343 N 
ATOM      8  C   PHE A   2     -15.258 -10.543  -4.823  1.00  0.00     0.243 C 
ATOM      9  O   PHE A   2     -15.480 -10.572  -3.581  1.00  0.00    -0.273 OA
ATOM     10  H   UNL     1     -16.038 -10.061  -6.756  1.00  0.00     0.164 HD
BRANCH   8  11
ATOM     11  CA  PHE A   2     -13.979 -11.059  -5.382  1.00  0.00     0.175 C 
BRANCH  11  12
ATOM     12  N   PHE A   2     -12.858 -10.484  -4.658  1.00  0.00    -0.343 N 
ATOM     13  C   SER A   1     -12.597  -9.082  -4.702  1.00  0.00     0.239 C 
ATOM     14  O   SER A   1     -13.354  -8.307  -5.350  1.00  0.00    -0.273 OA
ATOM     15  H   UNL     1     -12.224 -11.103  -4.103  1.00  0.00     0.164 HD
BRANCH  13  16
ATOM     16  CA  SER A   1     -11.430  -8.545  -3.930  1.00  0.00     0.167 C 
BRANCH  16  17
ATOM     17  N   SER A   1     -10.864  -7.380  -4.607  1.00  0.00    -0.318 NA
ATOM     18  H   UNL     1     -10.001  -7.090  -4.092  1.00  0.00     0.119 HD
ATOM     19  H   UNL     1     -10.544  -7.674  -5.559  1.00  0.00     0.119 HD
ENDBRANCH  16  17
BRANCH  16  20
ATOM     20  CB  SER A   1     -11.839  -8.205  -2.484  1.00  0.00     0.184 C 
BRANCH  20  21
ATOM     21  OG  SER A   1     -12.062  -6.828  -2.339  1.00  0.00    -0.394 OA
ATOM     22  H   UNL     1     -12.321  -6.688  -1.391  1.00  0.00     0.210 HD
ENDBRANCH  20  21
ENDBRANCH  16  20
ENDBRANCH  13  16
ENDBRANCH  11  12
BRANCH  11  23
ATOM     23  CB  PHE A   2     -13.966 -12.595  -5.326  1.00  0.00     0.070 C 
BRANCH  23  24
ATOM     24  CG  PHE A   2     -12.883 -13.198  -6.183  1.00  0.00    -0.045 A 
ATOM     25  CD1 PHE A   2     -12.723 -12.806  -7.526  1.00  0.00     0.004 A 
ATOM     26  CD2 PHE A   2     -12.092 -14.243  -5.682  1.00  0.00     0.004 A 
ATOM     27  CE1 PHE A   2     -11.747 -13.399  -8.324  1.00  0.00     0.000 A 
ATOM     28  CE2 PHE A   2     -11.134 -14.853  -6.495  1.00  0.00     0.000 A 
ATOM     29  CZ  PHE A   2     -10.955 -14.424  -7.811  1.00  0.00     0.000 A 
ENDBRANCH  23  24
ENDBRANCH  11  23
ENDBRANCH   8  11
ENDBRANCH   5   7
ENDBRANCH   1   5
BRANCH   3  30
ATOM     30  CA  ALA A   4     -19.821 -11.551  -3.047  1.00  0.00     0.168 C 
ATOM     31  CB  ALA A   4     -19.713 -11.721  -1.533  1.00  0.00     0.041 C 
BRANCH  30  32
ATOM     32  C   ALA A   4     -21.165 -11.052  -3.465  1.00  0.00     0.242 C 
ATOM     33  N   ARG A   5     -21.503 -11.138  -4.843  1.00  0.00    -0.343 N 
ATOM     34  O   ALA A   4     -21.968 -10.541  -2.636  1.00  0.00    -0.273 OA
ATOM     35  H   UNL     1     -21.067 -11.907  -5.400  1.00  0.00     0.164 HD
BRANCH  33  36
ATOM     36  CA  ARG A   5     -22.678 -10.495  -5.387  1.00  0.00     0.171 C 
BRANCH  36  37
ATOM     37  C   ARG A   5     -23.897 -11.194  -4.885  1.00  0.00     0.243 C 
ATOM     38  N   ASN A   6     -24.982 -10.402  -4.433  1.00  0.00    -0.341 N 
ATOM     39  O   ARG A   5     -23.965 -12.454  -4.868  1.00  0.00    -0.273 OA
ATOM     40  H   UNL     1     -24.931  -9.364  -4.552  1.00  0.00     0.164 HD
BRANCH  38  41
ATOM     41  CA  ASN A   6     -26.189 -10.994  -3.883  1.00  0.00     0.201 C 
BRANCH  41  42
ATOM     42  C   ASN A   6     -27.052 -11.522  -4.997  1.00  0.00     0.326 C 
ATOM     43  O   ASN A   6     -27.151 -10.892  -6.084  1.00  0.00    -0.250 OA
BRANCH  42  44
ATOM     44  OXT ASN A   6     -27.773 -12.698  -4.811  1.00  0.00    -0.480 OA
ATOM     45  H   UNL     1     -28.370 -13.063  -5.543  1.00  0.00     0.296 HD
ENDBRANCH  42  44
ENDBRANCH  41  42
BRANCH  41  46
ATOM     46  CB  ASN A   6     -26.930  -9.934  -3.062  1.00  0.00     0.136 C 
BRANCH  46  47
ATOM     47  CG  ASN A   6     -28.019 -10.549  -2.252  1.00  0.00     0.220 C 
ATOM     48  ND2 ASN A   6     -27.701 -11.241  -1.053  1.00  0.00    -0.370 N 
ATOM     49  OD1 ASN A   6     -29.213 -10.484  -2.643  1.00  0.00    -0.275 OA
ATOM     50  H   UNL     1     -28.456 -11.688  -0.487  1.00  0.00     0.159 HD
ATOM     51  H   UNL     1     -26.713 -11.314  -0.724  1.00  0.00     0.159 HD
ENDBRANCH  46  47
ENDBRANCH  41  46
ENDBRANCH  38  41
ENDBRANCH  36  37
BRANCH  36  52
ATOM     52  CB  ARG A   5     -22.650 -10.514  -6.915  1.00  0.00     0.037 C 
BRANCH  52  53
ATOM     53  CG  ARG A   5     -21.455  -9.724  -7.459  1.00  0.00     0.024 C 
BRANCH  53  54
ATOM     54  CD  ARG A   5     -21.601  -9.480  -8.963  1.00  0.00     0.116 C 
BRANCH  54  55
ATOM     55  NE  ARG A   5     -21.189  -8.117  -9.281  1.00  0.00    -0.357 N 
ATOM     56  CZ  ARG A   5     -20.072  -7.775 -10.101  1.00  0.00     0.185 C 
ATOM     57  NH2 ARG A   5     -19.200  -8.775 -10.617  1.00  0.00    -0.370 N 
ATOM     58  H   UNL     1     -21.775  -7.343  -8.892  1.00  0.00     0.163 HD
ATOM     59  H   UNL     1     -18.495  -8.517 -11.343  1.00  0.00     0.159 HD
ATOM     60  H   UNL     1     -19.100  -9.714 -10.177  1.00  0.00     0.159 HD
BRANCH  56  61
ATOM     61  NH1 ARG A   5     -19.842  -6.532 -10.385  1.00  0.00    -0.270 NA
ATOM     62  H   UNL     1     -20.452  -5.762 -10.032  1.00  0.00     0.191 HD
ENDBRANCH  56  61
ENDBRANCH  54  55
ENDBRANCH  53  54
ENDBRANCH  52  53
ENDBRANCH  36  52
ENDBRANCH  33  36
ENDBRANCH  30  32
ENDBRANCH   3  30
TORSDOF 24
