REMARK SMILES CC(C)C[C@H](NC(=O)[C@H](Cc1ccccc1)NC(=O)[C@@H](N)CO)C(=O)N[C@@H](CCCCN)C(=O)N[C@@H](CCCNC(=N)N)C(=O)N[C@@H](CO)C(=O)O
REMARK SMILES IDX 24 1 25 2 26 3 5 5 6 6 7 7 8 8 9 10 17 11 18 12 19 13 20 15
REMARK SMILES IDX 21 16 22 19 23 20 10 22 11 23 12 24 16 25 13 26 15 27 14 28
REMARK SMILES IDX 4 29 2 30 1 31 3 32 27 33 33 34 35 35 34 36 36 38 44 39
REMARK SMILES IDX 46 40 45 41 47 43 50 44 51 45 52 46 48 48 49 49 37 51 38 52
REMARK SMILES IDX 39 53 40 54 41 55 43 56 42 60 28 62 29 63 30 64 31 65 32 66
REMARK H PARENT 26 4 6 9 17 14 21 17 21 18 23 21 35 37 46 42 52 47 49 50 40 57
REMARK H PARENT 43 58 43 59 42 61 32 67 32 68
ROOT
ATOM      1  C   LEU A   3     -18.385 -10.546  -4.865  1.00  0.00     0.243 C 
ATOM      2  O   LEU A   3     -18.751 -11.406  -5.711  1.00  0.00    -0.273 OA
ATOM      3  N   LYS A   4     -18.848 -10.581  -3.520  1.00  0.00    -0.343 N 
ATOM      4  H   UNL     1     -18.592  -9.794  -2.880  1.00  0.00     0.164 HD
ENDROOT
BRANCH   1   5
ATOM      5  CA  LEU A   3     -17.452  -9.454  -5.244  1.00  0.00     0.171 C 
BRANCH   5   6
ATOM      6  N   LEU A   3     -16.215 -10.021  -5.731  1.00  0.00    -0.343 N 
ATOM      7  C   PHE A   2     -15.252 -10.549  -4.827  1.00  0.00     0.243 C 
ATOM      8  O   PHE A   2     -15.473 -10.578  -3.585  1.00  0.00    -0.273 OA
ATOM      9  H   UNL     1     -16.039 -10.071  -6.761  1.00  0.00     0.164 HD
BRANCH   7  10
ATOM     10  CA  PHE A   2     -13.974 -11.063  -5.385  1.00  0.00     0.175 C 
BRANCH  10  11
ATOM     11  N   PHE A   2     -12.855 -10.485  -4.661  1.00  0.00    -0.343 N 
ATOM     12  C   SER A   1     -12.601  -9.082  -4.707  1.00  0.00     0.239 C 
ATOM     13  O   SER A   1     -13.365  -8.314  -5.356  1.00  0.00    -0.273 OA
ATOM     14  H   UNL     1     -12.219 -11.101  -4.106  1.00  0.00     0.164 HD
BRANCH  12  15
ATOM     15  CA  SER A   1     -11.438  -8.537  -3.932  1.00  0.00     0.167 C 
BRANCH  15  16
ATOM     16  N   SER A   1     -10.845  -7.378  -4.604  1.00  0.00    -0.318 NA
ATOM     17  H   UNL     1     -11.573  -6.650  -4.787  1.00  0.00     0.119 HD
ATOM     18  H   UNL     1     -10.476  -7.685  -5.533  1.00  0.00     0.119 HD
ENDBRANCH  15  16
BRANCH  15  19
ATOM     19  CB  SER A   1     -11.839  -8.202  -2.483  1.00  0.00     0.184 C 
BRANCH  19  20
ATOM     20  OG  SER A   1     -12.058  -6.826  -2.327  1.00  0.00    -0.394 OA
ATOM     21  H   UNL     1     -12.317  -6.693  -1.379  1.00  0.00     0.210 HD
ENDBRANCH  19  20
ENDBRANCH  15  19
ENDBRANCH  12  15
ENDBRANCH  10  11
BRANCH  10  22
ATOM     22  CB  PHE A   2     -13.963 -12.598  -5.326  1.00  0.00     0.070 C 
BRANCH  22  23
ATOM     23  CG  PHE A   2     -12.882 -13.201  -6.184  1.00  0.00    -0.045 A 
ATOM     24  CD1 PHE A   2     -12.722 -12.808  -7.527  1.00  0.00     0.004 A 
ATOM     25  CD2 PHE A   2     -12.090 -14.245  -5.683  1.00  0.00     0.004 A 
ATOM     26  CE1 PHE A   2     -11.747 -13.400  -8.324  1.00  0.00     0.000 A 
ATOM     27  CE2 PHE A   2     -11.132 -14.854  -6.496  1.00  0.00     0.000 A 
ATOM     28  CZ  PHE A   2     -10.954 -14.425  -7.812  1.00  0.00     0.000 A 
ENDBRANCH  22  23
ENDBRANCH  10  22
ENDBRANCH   7  10
ENDBRANCH   5   6
BRANCH   5  29
ATOM     29  CB  LEU A   3     -18.098  -8.525  -6.277  1.00  0.00     0.038 C 
BRANCH  29  30
ATOM     30  CG  LEU A   3     -17.543  -7.089  -6.223  1.00  0.00    -0.015 C 
ATOM     31  CD1 LEU A   3     -18.188  -6.262  -7.337  1.00  0.00     0.007 C 
ATOM     32  CD2 LEU A   3     -17.813  -6.422  -4.860  1.00  0.00     0.007 C 
ENDBRANCH  29  30
ENDBRANCH   5  29
ENDBRANCH   1   5
BRANCH   3  33
ATOM     33  CA  LYS A   4     -19.823 -11.542  -3.048  1.00  0.00     0.171 C 
BRANCH  33  34
ATOM     34  C   LYS A   4     -21.174 -11.057  -3.464  1.00  0.00     0.243 C 
ATOM     35  N   ARG A   5     -21.507 -11.139  -4.843  1.00  0.00    -0.343 N 
ATOM     36  O   LYS A   4     -21.978 -10.546  -2.637  1.00  0.00    -0.273 OA
ATOM     37  H   UNL     1     -21.065 -11.900  -5.404  1.00  0.00     0.164 HD
BRANCH  35  38
ATOM     38  CA  ARG A   5     -22.683 -10.496  -5.387  1.00  0.00     0.171 C 
BRANCH  38  39
ATOM     39  C   ARG A   5     -23.902 -11.194  -4.883  1.00  0.00     0.243 C 
ATOM     40  N   SER A   6     -24.985 -10.404  -4.416  1.00  0.00    -0.339 N 
ATOM     41  O   ARG A   5     -23.969 -12.454  -4.869  1.00  0.00    -0.273 OA
ATOM     42  H   UNL     1     -24.927  -9.364  -4.510  1.00  0.00     0.164 HD
BRANCH  40  43
ATOM     43  CA  SER A   6     -26.195 -11.002  -3.874  1.00  0.00     0.218 C 
BRANCH  43  44
ATOM     44  C   SER A   6     -27.061 -11.517  -4.990  1.00  0.00     0.328 C 
ATOM     45  O   SER A   6     -27.145 -10.889  -6.080  1.00  0.00    -0.250 OA
BRANCH  44  46
ATOM     46  OXT SER A   6     -27.808 -12.676  -4.801  1.00  0.00    -0.480 OA
ATOM     47  H   UNL     1     -28.408 -13.032  -5.535  1.00  0.00     0.296 HD
ENDBRANCH  44  46
ENDBRANCH  43  44
BRANCH  43  48
ATOM     48  CB  SER A   6     -26.950  -9.970  -3.036  1.00  0.00     0.193 C 
BRANCH  48  49
ATOM     49  OG  SER A   6     -26.148  -9.546  -1.968  1.00  0.00    -0.394 OA
ATOM     50  H   UNL     1     -26.685  -8.876  -1.469  1.00  0.00     0.210 HD
ENDBRANCH  48  49
ENDBRANCH  43  48
ENDBRANCH  40  43
ENDBRANCH  38  39
BRANCH  38  51
ATOM     51  CB  ARG A   5     -22.652 -10.517  -6.916  1.00  0.00     0.037 C 
BRANCH  51  52
ATOM     52  CG  ARG A   5     -21.463  -9.717  -7.458  1.00  0.00     0.024 C 
BRANCH  52  53
ATOM     53  CD  ARG A   5     -21.602  -9.478  -8.963  1.00  0.00     0.116 C 
BRANCH  53  54
ATOM     54  NE  ARG A   5     -21.186  -8.116  -9.283  1.00  0.00    -0.357 N 
ATOM     55  CZ  ARG A   5     -20.073  -7.777 -10.106  1.00  0.00     0.185 C 
ATOM     56  NH2 ARG A   5     -19.198  -8.780 -10.616  1.00  0.00    -0.370 N 
ATOM     57  H   UNL     1     -21.765  -7.335  -8.898  1.00  0.00     0.163 HD
ATOM     58  H   UNL     1     -19.093  -9.712 -10.162  1.00  0.00     0.159 HD
ATOM     59  H   UNL     1     -18.500  -8.537 -11.353  1.00  0.00     0.159 HD
BRANCH  55  60
ATOM     60  NH1 ARG A   5     -19.856  -6.532 -10.386  1.00  0.00    -0.270 NA
ATOM     61  H   UNL     1     -19.051  -6.233 -10.981  1.00  0.00     0.191 HD
ENDBRANCH  55  60
ENDBRANCH  53  54
ENDBRANCH  52  53
ENDBRANCH  51  52
ENDBRANCH  38  51
ENDBRANCH  35  38
ENDBRANCH  33  34
BRANCH  33  62
ATOM     62  CB  LYS A   4     -19.674 -11.686  -1.523  1.00  0.00     0.035 C 
BRANCH  62  63
ATOM     63  CG  LYS A   4     -20.294 -12.968  -0.961  1.00  0.00     0.004 C 
BRANCH  63  64
ATOM     64  CD  LYS A   4     -19.620 -14.263  -1.450  1.00  0.00     0.015 C 
BRANCH  64  65
ATOM     65  CE  LYS A   4     -18.108 -14.322  -1.167  1.00  0.00     0.077 C 
BRANCH  65  66
ATOM     66  NZ  LYS A   4     -17.576 -15.662  -1.407  1.00  0.00    -0.330 NA
ATOM     67  H   UNL     1     -18.056 -16.337  -0.768  1.00  0.00     0.118 HD
ATOM     68  H   UNL     1     -17.796 -15.942  -2.391  1.00  0.00     0.118 HD
ENDBRANCH  65  66
ENDBRANCH  64  65
ENDBRANCH  63  64
ENDBRANCH  62  63
ENDBRANCH  33  62
ENDBRANCH   3  33
TORSDOF 31
