REMARK SMILES CC(C)C[C@H](NC(=O)[C@H](CC(C)C)NC(=O)[C@H](Cc1ccccc1)NC(=O)[C@@H](N)CO)C(=O)N[C@@H](C)C(=O)N[C@@H](CC(N)=O)C(=O)O
REMARK SMILES IDX 7 1 8 2 6 3 9 5 14 6 15 7 16 8 17 10 25 11 26 12 27 13 28 15
REMARK SMILES IDX 29 16 30 19 31 20 18 22 19 23 20 24 24 25 21 26 23 27 22 28
REMARK SMILES IDX 10 29 11 30 12 31 13 32 5 33 32 34 34 35 33 36 35 38 36 39
REMARK SMILES IDX 37 40 39 41 38 42 40 44 45 45 46 46 47 47 41 49 42 50 43 51
REMARK SMILES IDX 44 52 4 55 2 56 1 57 3 58
REMARK H PARENT 6 4 14 9 25 14 29 17 29 18 31 21 34 37 39 43 47 48 43 53 43 54
ROOT
ATOM      1  C   LEU A   3     -18.385 -10.546  -4.871  1.00  0.00     0.243 C 
ATOM      2  O   LEU A   3     -18.753 -11.402  -5.721  1.00  0.00    -0.273 OA
ATOM      3  N   LEU A   4     -18.850 -10.584  -3.528  1.00  0.00    -0.343 N 
ATOM      4  H   UNL     1     -18.599  -9.794  -2.889  1.00  0.00     0.164 HD
ENDROOT
BRANCH   1   5
ATOM      5  CA  LEU A   3     -17.453  -9.454  -5.247  1.00  0.00     0.171 C 
BRANCH   5   6
ATOM      6  N   LEU A   3     -16.214 -10.020  -5.732  1.00  0.00    -0.343 N 
ATOM      7  C   PHE A   2     -15.252 -10.547  -4.827  1.00  0.00     0.243 C 
ATOM      8  O   PHE A   2     -15.474 -10.577  -3.585  1.00  0.00    -0.273 OA
ATOM      9  H   UNL     1     -16.036 -10.070  -6.761  1.00  0.00     0.164 HD
BRANCH   7  10
ATOM     10  CA  PHE A   2     -13.974 -11.061  -5.384  1.00  0.00     0.175 C 
BRANCH  10  11
ATOM     11  N   PHE A   2     -12.855 -10.484  -4.659  1.00  0.00    -0.343 N 
ATOM     12  C   SER A   1     -12.596  -9.082  -4.702  1.00  0.00     0.239 C 
ATOM     13  O   SER A   1     -13.355  -8.308  -5.349  1.00  0.00    -0.273 OA
ATOM     14  H   UNL     1     -12.220 -11.103  -4.104  1.00  0.00     0.164 HD
BRANCH  12  15
ATOM     15  CA  SER A   1     -11.430  -8.545  -3.929  1.00  0.00     0.167 C 
BRANCH  15  16
ATOM     16  N   SER A   1     -10.865  -7.379  -4.607  1.00  0.00    -0.318 NA
ATOM     17  H   UNL     1     -10.544  -7.674  -5.559  1.00  0.00     0.119 HD
ATOM     18  H   UNL     1     -10.001  -7.088  -4.092  1.00  0.00     0.119 HD
ENDBRANCH  15  16
BRANCH  15  19
ATOM     19  CB  SER A   1     -11.839  -8.205  -2.484  1.00  0.00     0.184 C 
BRANCH  19  20
ATOM     20  OG  SER A   1     -12.062  -6.828  -2.339  1.00  0.00    -0.394 OA
ATOM     21  H   UNL     1     -12.323  -6.688  -1.391  1.00  0.00     0.210 HD
ENDBRANCH  19  20
ENDBRANCH  15  19
ENDBRANCH  12  15
ENDBRANCH  10  11
BRANCH  10  22
ATOM     22  CB  PHE A   2     -13.963 -12.597  -5.327  1.00  0.00     0.070 C 
BRANCH  22  23
ATOM     23  CG  PHE A   2     -12.882 -13.200  -6.184  1.00  0.00    -0.045 A 
ATOM     24  CD1 PHE A   2     -12.722 -12.808  -7.527  1.00  0.00     0.004 A 
ATOM     25  CD2 PHE A   2     -12.090 -14.244  -5.683  1.00  0.00     0.004 A 
ATOM     26  CE1 PHE A   2     -11.747 -13.400  -8.324  1.00  0.00     0.000 A 
ATOM     27  CE2 PHE A   2     -11.133 -14.854  -6.496  1.00  0.00     0.000 A 
ATOM     28  CZ  PHE A   2     -10.954 -14.425  -7.812  1.00  0.00     0.000 A 
ENDBRANCH  22  23
ENDBRANCH  10  22
ENDBRANCH   7  10
ENDBRANCH   5   6
BRANCH   5  29
ATOM     29  CB  LEU A   3     -18.099  -8.526  -6.283  1.00  0.00     0.038 C 
BRANCH  29  30
ATOM     30  CG  LEU A   3     -17.546  -7.090  -6.227  1.00  0.00    -0.015 C 
ATOM     31  CD1 LEU A   3     -18.196  -6.259  -7.337  1.00  0.00     0.007 C 
ATOM     32  CD2 LEU A   3     -17.813  -6.425  -4.862  1.00  0.00     0.007 C 
ENDBRANCH  29  30
ENDBRANCH   5  29
ENDBRANCH   1   5
BRANCH   3  33
ATOM     33  CA  LEU A   4     -19.823 -11.546  -3.058  1.00  0.00     0.171 C 
BRANCH  33  34
ATOM     34  C   LEU A   4     -21.174 -11.057  -3.471  1.00  0.00     0.243 C 
ATOM     35  N   ALA A   5     -21.504 -11.124  -4.854  1.00  0.00    -0.343 N 
ATOM     36  O   LEU A   4     -21.977 -10.550  -2.640  1.00  0.00    -0.273 OA
ATOM     37  H   UNL     1     -21.054 -11.875  -5.424  1.00  0.00     0.164 HD
BRANCH  35  38
ATOM     38  CA  ALA A   5     -22.680 -10.484  -5.403  1.00  0.00     0.168 C 
ATOM     39  CB  ALA A   5     -22.637 -10.506  -6.929  1.00  0.00     0.041 C 
BRANCH  38  40
ATOM     40  C   ALA A   5     -23.898 -11.186  -4.898  1.00  0.00     0.243 C 
ATOM     41  N   ASN A   6     -24.981 -10.397  -4.435  1.00  0.00    -0.341 N 
ATOM     42  O   ALA A   5     -23.962 -12.447  -4.875  1.00  0.00    -0.273 OA
ATOM     43  H   UNL     1     -24.928  -9.358  -4.545  1.00  0.00     0.164 HD
BRANCH  41  44
ATOM     44  CA  ASN A   6     -26.187 -10.992  -3.884  1.00  0.00     0.201 C 
BRANCH  44  45
ATOM     45  C   ASN A   6     -27.051 -11.522  -4.997  1.00  0.00     0.326 C 
ATOM     46  O   ASN A   6     -27.152 -10.892  -6.084  1.00  0.00    -0.250 OA
BRANCH  45  47
ATOM     47  OXT ASN A   6     -27.770 -12.698  -4.809  1.00  0.00    -0.480 OA
ATOM     48  H   UNL     1     -28.367 -13.064  -5.541  1.00  0.00     0.296 HD
ENDBRANCH  45  47
ENDBRANCH  44  45
BRANCH  44  49
ATOM     49  CB  ASN A   6     -26.929  -9.934  -3.062  1.00  0.00     0.136 C 
BRANCH  49  50
ATOM     50  CG  ASN A   6     -28.019 -10.550  -2.252  1.00  0.00     0.220 C 
ATOM     51  ND2 ASN A   6     -27.701 -11.242  -1.054  1.00  0.00    -0.370 N 
ATOM     52  OD1 ASN A   6     -29.213 -10.484  -2.643  1.00  0.00    -0.275 OA
ATOM     53  H   UNL     1     -28.456 -11.689  -0.488  1.00  0.00     0.159 HD
ATOM     54  H   UNL     1     -26.712 -11.314  -0.725  1.00  0.00     0.159 HD
ENDBRANCH  49  50
ENDBRANCH  44  49
ENDBRANCH  41  44
ENDBRANCH  38  40
ENDBRANCH  35  38
ENDBRANCH  33  34
BRANCH  33  55
ATOM     55  CB  LEU A   4     -19.658 -11.692  -1.537  1.00  0.00     0.038 C 
BRANCH  55  56
ATOM     56  CG  LEU A   4     -20.298 -12.958  -0.946  1.00  0.00    -0.015 C 
ATOM     57  CD1 LEU A   4     -19.610 -14.233  -1.461  1.00  0.00     0.007 C 
ATOM     58  CD2 LEU A   4     -20.194 -12.897   0.582  1.00  0.00     0.007 C 
ENDBRANCH  55  56
ENDBRANCH  33  55
ENDBRANCH   3  33
TORSDOF 23
