REMARK SMILES N=C(N)NCCC[C@H](NC(=O)[C@H](Cc1ccccc1)NC(=O)[C@H](CC(N)=O)NC(=O)[C@H](Cc1ccccc1)NC(=O)[C@@H](N)CO)C(=O)N[C@@H](CC(N)=O)C(=O)O
REMARK SMILES IDX 21 1 22 2 20 3 23 5 28 6 29 7 30 8 31 10 39 11 40 12 41 13
REMARK SMILES IDX 42 15 43 16 44 19 45 20 32 22 33 23 34 24 38 25 35 26 37 27
REMARK SMILES IDX 36 28 24 29 25 30 26 31 27 32 12 35 10 36 9 37 11 38 8 40
REMARK SMILES IDX 46 41 48 42 47 43 49 45 54 46 55 47 56 48 50 50 51 51 52 52
REMARK SMILES IDX 53 53 7 56 6 57 5 58 4 59 2 60 3 61 1 65 13 67 14 68 15 69
REMARK SMILES IDX 19 70 16 71 18 72 17 73
REMARK H PARENT 20 4 28 9 39 14 43 17 43 18 45 21 26 33 26 34 9 39 48 44 56 49
REMARK H PARENT 52 54 52 55 4 62 3 63 3 64 1 66
ROOT
ATOM      1  C   ASN A   3     -18.391 -10.531  -4.864  1.00  0.00     0.243 C 
ATOM      2  O   ASN A   3     -18.751 -11.392  -5.712  1.00  0.00    -0.273 OA
ATOM      3  N   PHE A   4     -18.835 -10.595  -3.512  1.00  0.00    -0.342 N 
ATOM      4  H   UNL     1     -18.535  -9.838  -2.854  1.00  0.00     0.164 HD
ENDROOT
BRANCH   1   5
ATOM      5  CA  ASN A   3     -17.462  -9.426  -5.245  1.00  0.00     0.180 C 
BRANCH   5   6
ATOM      6  N   ASN A   3     -16.218  -9.996  -5.725  1.00  0.00    -0.342 N 
ATOM      7  C   PHE A   2     -15.260 -10.542  -4.825  1.00  0.00     0.243 C 
ATOM      8  O   PHE A   2     -15.481 -10.575  -3.583  1.00  0.00    -0.273 OA
ATOM      9  H   UNL     1     -16.030 -10.025  -6.753  1.00  0.00     0.164 HD
BRANCH   7  10
ATOM     10  CA  PHE A   2     -13.981 -11.060  -5.384  1.00  0.00     0.175 C 
BRANCH  10  11
ATOM     11  N   PHE A   2     -12.859 -10.484  -4.662  1.00  0.00    -0.343 N 
ATOM     12  C   SER A   1     -12.602  -9.081  -4.708  1.00  0.00     0.239 C 
ATOM     13  O   SER A   1     -13.365  -8.312  -5.356  1.00  0.00    -0.273 OA
ATOM     14  H   UNL     1     -12.223 -11.101  -4.107  1.00  0.00     0.164 HD
BRANCH  12  15
ATOM     15  CA  SER A   1     -11.438  -8.537  -3.933  1.00  0.00     0.167 C 
BRANCH  15  16
ATOM     16  N   SER A   1     -10.845  -7.379  -4.604  1.00  0.00    -0.318 NA
ATOM     17  H   UNL     1     -10.475  -7.686  -5.534  1.00  0.00     0.119 HD
ATOM     18  H   UNL     1     -11.573  -6.650  -4.787  1.00  0.00     0.119 HD
ENDBRANCH  15  16
BRANCH  15  19
ATOM     19  CB  SER A   1     -11.839  -8.203  -2.484  1.00  0.00     0.184 C 
BRANCH  19  20
ATOM     20  OG  SER A   1     -12.058  -6.826  -2.328  1.00  0.00    -0.394 OA
ATOM     21  H   UNL     1     -12.316  -6.693  -1.379  1.00  0.00     0.210 HD
ENDBRANCH  19  20
ENDBRANCH  15  19
ENDBRANCH  12  15
ENDBRANCH  10  11
BRANCH  10  22
ATOM     22  CB  PHE A   2     -13.967 -12.596  -5.326  1.00  0.00     0.070 C 
BRANCH  22  23
ATOM     23  CG  PHE A   2     -12.884 -13.199  -6.183  1.00  0.00    -0.045 A 
ATOM     24  CD1 PHE A   2     -12.723 -12.807  -7.526  1.00  0.00     0.004 A 
ATOM     25  CD2 PHE A   2     -12.092 -14.243  -5.682  1.00  0.00     0.004 A 
ATOM     26  CE1 PHE A   2     -11.747 -13.399  -8.324  1.00  0.00     0.000 A 
ATOM     27  CE2 PHE A   2     -11.134 -14.853  -6.495  1.00  0.00     0.000 A 
ATOM     28  CZ  PHE A   2     -10.955 -14.424  -7.811  1.00  0.00     0.000 A 
ENDBRANCH  22  23
ENDBRANCH  10  22
ENDBRANCH   7  10
ENDBRANCH   5   6
BRANCH   5  29
ATOM     29  CB  ASN A   3     -18.104  -8.510  -6.294  1.00  0.00     0.134 C 
BRANCH  29  30
ATOM     30  CG  ASN A   3     -17.502  -7.135  -6.259  1.00  0.00     0.220 C 
ATOM     31  ND2 ASN A   3     -17.960  -6.168  -5.314  1.00  0.00    -0.370 N 
ATOM     32  OD1 ASN A   3     -16.560  -6.845  -7.044  1.00  0.00    -0.275 OA
ATOM     33  H   UNL     1     -18.722  -6.402  -4.640  1.00  0.00     0.159 HD
ATOM     34  H   UNL     1     -17.530  -5.217  -5.283  1.00  0.00     0.159 HD
ENDBRANCH  29  30
ENDBRANCH   5  29
ENDBRANCH   1   5
BRANCH   3  35
ATOM     35  CA  PHE A   4     -19.817 -11.555  -3.040  1.00  0.00     0.175 C 
BRANCH  35  36
ATOM     36  C   PHE A   4     -21.167 -11.062  -3.459  1.00  0.00     0.243 C 
ATOM     37  N   ARG A   5     -21.501 -11.143  -4.839  1.00  0.00    -0.343 N 
ATOM     38  O   PHE A   4     -21.968 -10.543  -2.635  1.00  0.00    -0.273 OA
ATOM     39  H   UNL     1     -21.060 -11.906  -5.399  1.00  0.00     0.164 HD
BRANCH  37  40
ATOM     40  CA  ARG A   5     -22.676 -10.499  -5.385  1.00  0.00     0.171 C 
BRANCH  40  41
ATOM     41  C   ARG A   5     -23.896 -11.195  -4.884  1.00  0.00     0.243 C 
ATOM     42  N   ASN A   6     -24.981 -10.403  -4.433  1.00  0.00    -0.341 N 
ATOM     43  O   ARG A   5     -23.965 -12.455  -4.867  1.00  0.00    -0.273 OA
ATOM     44  H   UNL     1     -24.929  -9.364  -4.552  1.00  0.00     0.164 HD
BRANCH  42  45
ATOM     45  CA  ASN A   6     -26.189 -10.994  -3.883  1.00  0.00     0.201 C 
BRANCH  45  46
ATOM     46  C   ASN A   6     -27.052 -11.522  -4.997  1.00  0.00     0.326 C 
ATOM     47  O   ASN A   6     -27.151 -10.892  -6.084  1.00  0.00    -0.250 OA
BRANCH  46  48
ATOM     48  OXT ASN A   6     -27.772 -12.698  -4.811  1.00  0.00    -0.480 OA
ATOM     49  H   UNL     1     -28.369 -13.063  -5.543  1.00  0.00     0.296 HD
ENDBRANCH  46  48
ENDBRANCH  45  46
BRANCH  45  50
ATOM     50  CB  ASN A   6     -26.929  -9.934  -3.062  1.00  0.00     0.136 C 
BRANCH  50  51
ATOM     51  CG  ASN A   6     -28.019 -10.549  -2.252  1.00  0.00     0.220 C 
ATOM     52  ND2 ASN A   6     -27.701 -11.242  -1.053  1.00  0.00    -0.370 N 
ATOM     53  OD1 ASN A   6     -29.213 -10.483  -2.643  1.00  0.00    -0.275 OA
ATOM     54  H   UNL     1     -26.712 -11.315  -0.725  1.00  0.00     0.159 HD
ATOM     55  H   UNL     1     -28.456 -11.688  -0.487  1.00  0.00     0.159 HD
ENDBRANCH  50  51
ENDBRANCH  45  50
ENDBRANCH  42  45
ENDBRANCH  40  41
BRANCH  40  56
ATOM     56  CB  ARG A   5     -22.647 -10.520  -6.914  1.00  0.00     0.037 C 
BRANCH  56  57
ATOM     57  CG  ARG A   5     -21.461  -9.718  -7.458  1.00  0.00     0.024 C 
BRANCH  57  58
ATOM     58  CD  ARG A   5     -21.602  -9.481  -8.962  1.00  0.00     0.116 C 
BRANCH  58  59
ATOM     59  NE  ARG A   5     -21.190  -8.118  -9.283  1.00  0.00    -0.357 N 
ATOM     60  CZ  ARG A   5     -20.072  -7.775 -10.101  1.00  0.00     0.185 C 
ATOM     61  NH2 ARG A   5     -19.200  -8.775 -10.617  1.00  0.00    -0.370 N 
ATOM     62  H   UNL     1     -21.778  -7.343  -8.898  1.00  0.00     0.163 HD
ATOM     63  H   UNL     1     -19.101  -9.714 -10.177  1.00  0.00     0.159 HD
ATOM     64  H   UNL     1     -18.493  -8.517 -11.341  1.00  0.00     0.159 HD
BRANCH  60  65
ATOM     65  NH1 ARG A   5     -19.841  -6.533 -10.384  1.00  0.00    -0.270 NA
ATOM     66  H   UNL     1     -20.452  -5.762 -10.031  1.00  0.00     0.191 HD
ENDBRANCH  60  65
ENDBRANCH  58  59
ENDBRANCH  57  58
ENDBRANCH  56  57
ENDBRANCH  40  56
ENDBRANCH  37  40
ENDBRANCH  35  36
BRANCH  35  67
ATOM     67  CB  PHE A   4     -19.668 -11.708  -1.515  1.00  0.00     0.070 C 
BRANCH  67  68
ATOM     68  CG  PHE A   4     -20.336 -12.950  -0.988  1.00  0.00    -0.045 A 
ATOM     69  CD1 PHE A   4     -19.721 -14.204  -1.143  1.00  0.00     0.004 A 
ATOM     70  CD2 PHE A   4     -21.601 -12.875  -0.379  1.00  0.00     0.004 A 
ATOM     71  CE1 PHE A   4     -20.355 -15.362  -0.684  1.00  0.00     0.000 A 
ATOM     72  CE2 PHE A   4     -22.232 -14.036   0.077  1.00  0.00     0.000 A 
ATOM     73  CZ  PHE A   4     -21.610 -15.278  -0.074  1.00  0.00     0.000 A 
ENDBRANCH  67  68
ENDBRANCH  35  67
ENDBRANCH   3  35
TORSDOF 28
