REMARK SMILES CC(C)C[C@H](NC(=O)[C@H](C)NC(=O)[C@H](Cc1ccccc1)NC(=O)[C@@H](N)CO)C(=O)N[C@@H](CCCNC(=N)N)C(=O)NCC(=O)O
REMARK SMILES IDX 7 1 8 2 6 3 9 5 10 6 11 7 12 8 13 9 14 11 22 12 23 13 24 14
REMARK SMILES IDX 25 16 26 17 27 20 28 21 15 23 16 24 17 25 21 26 18 27 20 28
REMARK SMILES IDX 19 29 5 30 29 31 31 32 30 33 32 35 40 36 42 37 41 38 43 40
REMARK SMILES IDX 44 41 45 42 46 43 33 45 34 46 35 47 36 48 37 49 39 50 38 54
REMARK SMILES IDX 4 56 2 57 1 58 3 59
REMARK H PARENT 6 4 11 10 22 15 26 18 26 19 28 22 31 34 42 39 46 44 36 51
REMARK H PARENT 39 52 39 53 38 55
ROOT
ATOM      1  C   ALA A   3     -18.395 -10.517  -4.875  1.00  0.00     0.242 C 
ATOM      2  O   ALA A   3     -18.752 -11.389  -5.715  1.00  0.00    -0.273 OA
ATOM      3  N   LEU A   4     -18.844 -10.566  -3.527  1.00  0.00    -0.343 N 
ATOM      4  H   UNL     1     -18.569  -9.788  -2.884  1.00  0.00     0.164 HD
ENDROOT
BRANCH   1   5
ATOM      5  CA  ALA A   3     -17.457  -9.427  -5.264  1.00  0.00     0.168 C 
ATOM      6  CB  ALA A   3     -18.069  -8.535  -6.335  1.00  0.00     0.041 C 
BRANCH   5   7
ATOM      7  N   ALA A   3     -16.217 -10.010  -5.731  1.00  0.00    -0.343 N 
ATOM      8  C   PHE A   2     -15.258 -10.543  -4.825  1.00  0.00     0.243 C 
ATOM      9  O   PHE A   2     -15.482 -10.571  -3.584  1.00  0.00    -0.273 OA
ATOM     10  H   UNL     1     -16.035 -10.063  -6.760  1.00  0.00     0.164 HD
BRANCH   8  11
ATOM     11  CA  PHE A   2     -13.978 -11.060  -5.382  1.00  0.00     0.175 C 
BRANCH  11  12
ATOM     12  N   PHE A   2     -12.858 -10.484  -4.658  1.00  0.00    -0.343 N 
ATOM     13  C   SER A   1     -12.596  -9.083  -4.703  1.00  0.00     0.239 C 
ATOM     14  O   SER A   1     -13.354  -8.308  -5.350  1.00  0.00    -0.273 OA
ATOM     15  H   UNL     1     -12.224 -11.103  -4.102  1.00  0.00     0.164 HD
BRANCH  13  16
ATOM     16  CA  SER A   1     -11.429  -8.545  -3.931  1.00  0.00     0.167 C 
BRANCH  16  17
ATOM     17  N   SER A   1     -10.863  -7.381  -4.611  1.00  0.00    -0.318 NA
ATOM     18  H   UNL     1      -9.982  -7.111  -4.115  1.00  0.00     0.119 HD
ATOM     19  H   UNL     1     -10.568  -7.671  -5.572  1.00  0.00     0.119 HD
ENDBRANCH  16  17
BRANCH  16  20
ATOM     20  CB  SER A   1     -11.841  -8.204  -2.485  1.00  0.00     0.184 C 
BRANCH  20  21
ATOM     21  OG  SER A   1     -12.062  -6.825  -2.331  1.00  0.00    -0.394 OA
ATOM     22  H   UNL     1     -11.200  -6.420  -2.047  1.00  0.00     0.210 HD
ENDBRANCH  20  21
ENDBRANCH  16  20
ENDBRANCH  13  16
ENDBRANCH  11  12
BRANCH  11  23
ATOM     23  CB  PHE A   2     -13.966 -12.596  -5.326  1.00  0.00     0.070 C 
BRANCH  23  24
ATOM     24  CG  PHE A   2     -12.883 -13.199  -6.183  1.00  0.00    -0.045 A 
ATOM     25  CD1 PHE A   2     -12.723 -12.807  -7.526  1.00  0.00     0.004 A 
ATOM     26  CD2 PHE A   2     -12.092 -14.244  -5.682  1.00  0.00     0.004 A 
ATOM     27  CE1 PHE A   2     -11.747 -13.399  -8.324  1.00  0.00     0.000 A 
ATOM     28  CE2 PHE A   2     -11.134 -14.853  -6.495  1.00  0.00     0.000 A 
ATOM     29  CZ  PHE A   2     -10.955 -14.424  -7.811  1.00  0.00     0.000 A 
ENDBRANCH  23  24
ENDBRANCH  11  23
ENDBRANCH   8  11
ENDBRANCH   5   7
ENDBRANCH   1   5
BRANCH   3  30
ATOM     30  CA  LEU A   4     -19.814 -11.536  -3.056  1.00  0.00     0.171 C 
BRANCH  30  31
ATOM     31  C   LEU A   4     -21.171 -11.056  -3.462  1.00  0.00     0.243 C 
ATOM     32  N   ARG A   5     -21.513 -11.136  -4.839  1.00  0.00    -0.343 N 
ATOM     33  O   LEU A   4     -21.971 -10.548  -2.630  1.00  0.00    -0.273 OA
ATOM     34  H   UNL     1     -21.069 -11.895  -5.404  1.00  0.00     0.164 HD
BRANCH  32  35
ATOM     35  CA  ARG A   5     -22.690 -10.491  -5.380  1.00  0.00     0.171 C 
BRANCH  35  36
ATOM     36  C   ARG A   5     -23.911 -11.190  -4.875  1.00  0.00     0.243 C 
ATOM     37  N   GLY A   6     -24.994 -10.406  -4.388  1.00  0.00    -0.343 N 
ATOM     38  O   ARG A   5     -23.977 -12.451  -4.872  1.00  0.00    -0.273 OA
ATOM     39  H   UNL     1     -24.916  -9.364  -4.379  1.00  0.00     0.164 HD
BRANCH  37  40
ATOM     40  CA  GLY A   6     -26.217 -11.006  -3.883  1.00  0.00     0.238 C 
BRANCH  40  41
ATOM     41  C   GLY A   6     -27.045 -11.538  -5.009  1.00  0.00     0.322 C 
ATOM     42  O   GLY A   6     -27.151 -10.890  -6.085  1.00  0.00    -0.250 OA
BRANCH  41  43
ATOM     43  OXT GLY A   6     -27.733 -12.737  -4.853  1.00  0.00    -0.480 OA
ATOM     44  H   UNL     1     -28.308 -13.108  -5.599  1.00  0.00     0.296 HD
ENDBRANCH  41  43
ENDBRANCH  40  41
ENDBRANCH  37  40
ENDBRANCH  35  36
BRANCH  35  45
ATOM     45  CB  ARG A   5     -22.658 -10.510  -6.910  1.00  0.00     0.037 C 
BRANCH  45  46
ATOM     46  CG  ARG A   5     -21.460  -9.725  -7.455  1.00  0.00     0.024 C 
BRANCH  46  47
ATOM     47  CD  ARG A   5     -21.602  -9.481  -8.960  1.00  0.00     0.116 C 
BRANCH  47  48
ATOM     48  NE  ARG A   5     -21.189  -8.118  -9.279  1.00  0.00    -0.357 N 
ATOM     49  CZ  ARG A   5     -20.073  -7.775 -10.100  1.00  0.00     0.185 C 
ATOM     50  NH2 ARG A   5     -19.201  -8.775 -10.617  1.00  0.00    -0.370 N 
ATOM     51  H   UNL     1     -21.775  -7.344  -8.890  1.00  0.00     0.163 HD
ATOM     52  H   UNL     1     -18.496  -8.518 -11.343  1.00  0.00     0.159 HD
ATOM     53  H   UNL     1     -19.101  -9.715 -10.178  1.00  0.00     0.159 HD
BRANCH  49  54
ATOM     54  NH1 ARG A   5     -19.843  -6.533 -10.385  1.00  0.00    -0.270 NA
ATOM     55  H   UNL     1     -20.453  -5.762 -10.030  1.00  0.00     0.191 HD
ENDBRANCH  49  54
ENDBRANCH  47  48
ENDBRANCH  46  47
ENDBRANCH  45  46
ENDBRANCH  35  45
ENDBRANCH  32  35
ENDBRANCH  30  31
BRANCH  30  56
ATOM     56  CB  LEU A   4     -19.649 -11.688  -1.536  1.00  0.00     0.038 C 
BRANCH  56  57
ATOM     57  CG  LEU A   4     -20.294 -12.954  -0.948  1.00  0.00    -0.015 C 
ATOM     58  CD1 LEU A   4     -19.611 -14.230  -1.464  1.00  0.00     0.007 C 
ATOM     59  CD2 LEU A   4     -20.194 -12.897   0.581  1.00  0.00     0.007 C 
ENDBRANCH  56  57
ENDBRANCH  30  56
ENDBRANCH   3  30
TORSDOF 24
