REMARK SMILES CC(C)C[C@H](NC(=O)[C@H](Cc1ccccc1)NC(=O)[C@@H](N)CO)C(=O)N[C@@H](CCCNC(=N)N)C(=O)N[C@@H](CCCNC(=N)N)C(=O)N[C@@H](Cc1c[nH]cn1)C(=O)O
REMARK SMILES IDX 24 1 25 2 26 3 5 5 6 6 7 7 8 8 9 10 17 11 18 12 19 13 20 15
REMARK SMILES IDX 21 16 22 19 23 20 10 22 11 23 12 24 16 25 13 26 15 27 14 28
REMARK SMILES IDX 4 29 2 30 1 31 3 32 27 33 35 34 37 35 36 36 38 38 46 39
REMARK SMILES IDX 48 40 47 41 49 43 56 44 57 45 58 46 50 48 51 49 55 50 52 51
REMARK SMILES IDX 54 52 53 53 39 55 40 56 41 57 42 58 43 59 45 60 44 64 28 66
REMARK SMILES IDX 29 67 30 68 31 69 32 70 34 71 33 75
REMARK H PARENT 26 4 6 9 17 14 21 17 21 18 23 21 37 37 48 42 58 47 53 54 42 61
REMARK H PARENT 45 62 45 63 44 65 31 72 34 73 34 74 33 76
ROOT
ATOM      1  C   LEU A   3     -18.385 -10.546  -4.865  1.00  0.00     0.243 C 
ATOM      2  O   LEU A   3     -18.751 -11.405  -5.712  1.00  0.00    -0.273 OA
ATOM      3  N   ARG A   4     -18.847 -10.584  -3.520  1.00  0.00    -0.343 N 
ATOM      4  H   UNL     1     -18.588  -9.800  -2.877  1.00  0.00     0.164 HD
ENDROOT
BRANCH   1   5
ATOM      5  CA  LEU A   3     -17.453  -9.454  -5.243  1.00  0.00     0.171 C 
BRANCH   5   6
ATOM      6  N   LEU A   3     -16.215 -10.020  -5.731  1.00  0.00    -0.343 N 
ATOM      7  C   PHE A   2     -15.252 -10.547  -4.827  1.00  0.00     0.243 C 
ATOM      8  O   PHE A   2     -15.473 -10.577  -3.585  1.00  0.00    -0.273 OA
ATOM      9  H   UNL     1     -16.038 -10.070  -6.761  1.00  0.00     0.164 HD
BRANCH   7  10
ATOM     10  CA  PHE A   2     -13.974 -11.061  -5.385  1.00  0.00     0.175 C 
BRANCH  10  11
ATOM     11  N   PHE A   2     -12.855 -10.484  -4.660  1.00  0.00    -0.343 N 
ATOM     12  C   SER A   1     -12.596  -9.082  -4.702  1.00  0.00     0.239 C 
ATOM     13  O   SER A   1     -13.355  -8.308  -5.349  1.00  0.00    -0.273 OA
ATOM     14  H   UNL     1     -12.220 -11.103  -4.104  1.00  0.00     0.164 HD
BRANCH  12  15
ATOM     15  CA  SER A   1     -11.430  -8.545  -3.930  1.00  0.00     0.167 C 
BRANCH  15  16
ATOM     16  N   SER A   1     -10.865  -7.379  -4.607  1.00  0.00    -0.318 NA
ATOM     17  H   UNL     1     -10.001  -7.089  -4.092  1.00  0.00     0.119 HD
ATOM     18  H   UNL     1     -10.544  -7.674  -5.559  1.00  0.00     0.119 HD
ENDBRANCH  15  16
BRANCH  15  19
ATOM     19  CB  SER A   1     -11.839  -8.205  -2.484  1.00  0.00     0.184 C 
BRANCH  19  20
ATOM     20  OG  SER A   1     -12.062  -6.828  -2.339  1.00  0.00    -0.394 OA
ATOM     21  H   UNL     1     -12.323  -6.688  -1.392  1.00  0.00     0.210 HD
ENDBRANCH  19  20
ENDBRANCH  15  19
ENDBRANCH  12  15
ENDBRANCH  10  11
BRANCH  10  22
ATOM     22  CB  PHE A   2     -13.963 -12.597  -5.327  1.00  0.00     0.070 C 
BRANCH  22  23
ATOM     23  CG  PHE A   2     -12.882 -13.200  -6.184  1.00  0.00    -0.045 A 
ATOM     24  CD1 PHE A   2     -12.722 -12.808  -7.527  1.00  0.00     0.004 A 
ATOM     25  CD2 PHE A   2     -12.091 -14.244  -5.683  1.00  0.00     0.004 A 
ATOM     26  CE1 PHE A   2     -11.747 -13.400  -8.325  1.00  0.00     0.000 A 
ATOM     27  CE2 PHE A   2     -11.133 -14.854  -6.496  1.00  0.00     0.000 A 
ATOM     28  CZ  PHE A   2     -10.954 -14.425  -7.812  1.00  0.00     0.000 A 
ENDBRANCH  22  23
ENDBRANCH  10  22
ENDBRANCH   7  10
ENDBRANCH   5   6
BRANCH   5  29
ATOM     29  CB  LEU A   3     -18.099  -8.524  -6.277  1.00  0.00     0.038 C 
BRANCH  29  30
ATOM     30  CG  LEU A   3     -17.543  -7.089  -6.223  1.00  0.00    -0.015 C 
ATOM     31  CD1 LEU A   3     -18.189  -6.261  -7.337  1.00  0.00     0.007 C 
ATOM     32  CD2 LEU A   3     -17.813  -6.422  -4.860  1.00  0.00     0.007 C 
ENDBRANCH  29  30
ENDBRANCH   5  29
ENDBRANCH   1   5
BRANCH   3  33
ATOM     33  CA  ARG A   4     -19.822 -11.545  -3.051  1.00  0.00     0.171 C 
BRANCH  33  34
ATOM     34  C   ARG A   4     -21.172 -11.058  -3.463  1.00  0.00     0.243 C 
ATOM     35  N   ARG A   5     -21.507 -11.138  -4.842  1.00  0.00    -0.343 N 
ATOM     36  O   ARG A   4     -21.974 -10.546  -2.634  1.00  0.00    -0.273 OA
ATOM     37  H   UNL     1     -21.065 -11.899  -5.403  1.00  0.00     0.164 HD
BRANCH  35  38
ATOM     38  CA  ARG A   5     -22.683 -10.495  -5.386  1.00  0.00     0.171 C 
BRANCH  38  39
ATOM     39  C   ARG A   5     -23.901 -11.194  -4.884  1.00  0.00     0.243 C 
ATOM     40  N   HIS A   6     -24.986 -10.405  -4.423  1.00  0.00    -0.341 N 
ATOM     41  O   ARG A   5     -23.967 -12.454  -4.869  1.00  0.00    -0.273 OA
ATOM     42  H   UNL     1     -24.935  -9.365  -4.531  1.00  0.00     0.164 HD
BRANCH  40  43
ATOM     43  CA  HIS A   6     -26.193 -11.003  -3.875  1.00  0.00     0.198 C 
BRANCH  43  44
ATOM     44  C   HIS A   6     -27.059 -11.520  -4.992  1.00  0.00     0.326 C 
ATOM     45  O   HIS A   6     -27.149 -10.889  -6.080  1.00  0.00    -0.250 OA
BRANCH  44  46
ATOM     46  OXT HIS A   6     -27.793 -12.688  -4.807  1.00  0.00    -0.480 OA
ATOM     47  H   UNL     1     -28.394 -13.045  -5.540  1.00  0.00     0.296 HD
ENDBRANCH  44  46
ENDBRANCH  43  44
BRANCH  43  48
ATOM     48  CB  HIS A   6     -26.931  -9.957  -3.031  1.00  0.00     0.094 C 
BRANCH  48  49
ATOM     49  CG  HIS A   6     -28.044 -10.574  -2.244  1.00  0.00     0.061 A 
ATOM     50  ND1 HIS A   6     -29.330 -10.600  -2.649  1.00  0.00    -0.242 NA
ATOM     51  CD2 HIS A   6     -27.912 -11.261  -1.058  1.00  0.00     0.107 A 
ATOM     52  CE1 HIS A   6     -29.960 -11.296  -1.679  1.00  0.00     0.196 A 
ATOM     53  NE2 HIS A   6     -29.126 -11.709  -0.706  1.00  0.00    -0.351 N 
ATOM     54  H   UNL     1     -29.371 -12.268   0.141  1.00  0.00     0.167 HD
ENDBRANCH  48  49
ENDBRANCH  43  48
ENDBRANCH  40  43
ENDBRANCH  38  39
BRANCH  38  55
ATOM     55  CB  ARG A   5     -22.652 -10.517  -6.915  1.00  0.00     0.037 C 
BRANCH  55  56
ATOM     56  CG  ARG A   5     -21.462  -9.719  -7.458  1.00  0.00     0.024 C 
BRANCH  56  57
ATOM     57  CD  ARG A   5     -21.602  -9.480  -8.962  1.00  0.00     0.116 C 
BRANCH  57  58
ATOM     58  NE  ARG A   5     -21.189  -8.117  -9.281  1.00  0.00    -0.357 N 
ATOM     59  CZ  ARG A   5     -20.075  -7.775 -10.104  1.00  0.00     0.185 C 
ATOM     60  NH2 ARG A   5     -19.200  -8.774 -10.616  1.00  0.00    -0.370 N 
ATOM     61  H   UNL     1     -21.774  -7.342  -8.893  1.00  0.00     0.163 HD
ATOM     62  H   UNL     1     -18.494  -8.517 -11.342  1.00  0.00     0.159 HD
ATOM     63  H   UNL     1     -19.097  -9.710 -10.171  1.00  0.00     0.159 HD
BRANCH  59  64
ATOM     64  NH1 ARG A   5     -19.847  -6.533 -10.392  1.00  0.00    -0.270 NA
ATOM     65  H   UNL     1     -20.457  -5.762 -10.039  1.00  0.00     0.191 HD
ENDBRANCH  59  64
ENDBRANCH  57  58
ENDBRANCH  56  57
ENDBRANCH  55  56
ENDBRANCH  38  55
ENDBRANCH  35  38
ENDBRANCH  33  34
BRANCH  33  66
ATOM     66  CB  ARG A   4     -19.667 -11.702  -1.528  1.00  0.00     0.037 C 
BRANCH  66  67
ATOM     67  CG  ARG A   4     -20.321 -12.968  -0.970  1.00  0.00     0.024 C 
BRANCH  67  68
ATOM     68  CD  ARG A   4     -19.607 -14.245  -1.440  1.00  0.00     0.116 C 
BRANCH  68  69
ATOM     69  NE  ARG A   4     -20.074 -15.407  -0.682  1.00  0.00    -0.357 N 
ATOM     70  CZ  ARG A   4     -19.549 -16.722  -0.911  1.00  0.00     0.185 C 
ATOM     71  NH2 ARG A   4     -20.043 -17.824  -0.146  1.00  0.00    -0.370 N 
ATOM     72  H   UNL     1     -20.816 -15.291   0.045  1.00  0.00     0.163 HD
ATOM     73  H   UNL     1     -20.782 -17.677   0.578  1.00  0.00     0.159 HD
ATOM     74  H   UNL     1     -19.675 -18.790  -0.296  1.00  0.00     0.159 HD
BRANCH  70  75
ATOM     75  NH1 ARG A   4     -18.632 -16.913  -1.807  1.00  0.00    -0.270 NA
ATOM     76  H   UNL     1     -18.235 -17.861  -1.993  1.00  0.00     0.191 HD
ENDBRANCH  70  75
ENDBRANCH  68  69
ENDBRANCH  67  68
ENDBRANCH  66  67
ENDBRANCH  33  66
ENDBRANCH   3  33
TORSDOF 31
