REMARK SMILES C[C@H](NC(=O)CNC(=O)[C@H](Cc1ccccc1)NC(=O)[C@@H](N)CO)C(=O)N[C@@H](CCCNC(=N)N)C(=O)N[C@@H](CC(N)=O)C(=O)O
REMARK SMILES IDX 4 1 5 2 3 3 6 5 7 6 8 7 9 8 10 10 18 11 19 12 20 13 21 15
REMARK SMILES IDX 22 16 23 19 24 20 11 22 12 23 13 24 17 25 14 26 16 27 15 28
REMARK SMILES IDX 2 29 1 30 25 31 27 32 26 33 28 35 36 36 38 37 37 38 39 40
REMARK SMILES IDX 44 41 45 42 46 43 40 45 41 46 42 47 43 48 29 51 30 52 31 53
REMARK SMILES IDX 32 54 33 55 35 56 34 60
REMARK H PARENT 3 4 7 9 18 14 22 17 22 18 24 21 27 34 38 39 46 44 42 49 42 50
REMARK H PARENT 32 57 35 58 35 59 34 61
ROOT
ATOM      1  C   GLY A   3     -18.396 -10.536  -4.872  1.00  0.00     0.240 C 
ATOM      2  O   GLY A   3     -18.765 -11.400  -5.712  1.00  0.00    -0.273 OA
ATOM      3  N   ALA A   4     -18.812 -10.605  -3.512  1.00  0.00    -0.343 N 
ATOM      4  H   UNL     1     -18.442  -9.892  -2.841  1.00  0.00     0.164 HD
ENDROOT
BRANCH   1   5
ATOM      5  CA  GLY A   3     -17.485  -9.439  -5.291  1.00  0.00     0.216 C 
BRANCH   5   6
ATOM      6  N   GLY A   3     -16.224  -9.997  -5.731  1.00  0.00    -0.345 N 
ATOM      7  C   PHE A   2     -15.267 -10.537  -4.825  1.00  0.00     0.243 C 
ATOM      8  O   PHE A   2     -15.492 -10.568  -3.584  1.00  0.00    -0.273 OA
ATOM      9  H   UNL     1     -16.020  -9.986  -6.756  1.00  0.00     0.164 HD
BRANCH   7  10
ATOM     10  CA  PHE A   2     -13.984 -11.057  -5.381  1.00  0.00     0.175 C 
BRANCH  10  11
ATOM     11  N   PHE A   2     -12.863 -10.482  -4.658  1.00  0.00    -0.343 N 
ATOM     12  C   SER A   1     -12.598  -9.081  -4.702  1.00  0.00     0.239 C 
ATOM     13  O   SER A   1     -13.354  -8.306  -5.351  1.00  0.00    -0.273 OA
ATOM     14  H   UNL     1     -12.230 -11.102  -4.101  1.00  0.00     0.164 HD
BRANCH  12  15
ATOM     15  CA  SER A   1     -11.430  -8.546  -3.930  1.00  0.00     0.167 C 
BRANCH  15  16
ATOM     16  N   SER A   1     -10.864  -7.380  -4.607  1.00  0.00    -0.318 NA
ATOM     17  H   UNL     1     -10.000  -7.091  -4.093  1.00  0.00     0.119 HD
ATOM     18  H   UNL     1     -10.544  -7.675  -5.559  1.00  0.00     0.119 HD
ENDBRANCH  15  16
BRANCH  15  19
ATOM     19  CB  SER A   1     -11.839  -8.206  -2.484  1.00  0.00     0.184 C 
BRANCH  19  20
ATOM     20  OG  SER A   1     -12.062  -6.828  -2.339  1.00  0.00    -0.394 OA
ATOM     21  H   UNL     1     -12.320  -6.688  -1.391  1.00  0.00     0.210 HD
ENDBRANCH  19  20
ENDBRANCH  15  19
ENDBRANCH  12  15
ENDBRANCH  10  11
BRANCH  10  22
ATOM     22  CB  PHE A   2     -13.970 -12.594  -5.326  1.00  0.00     0.070 C 
BRANCH  22  23
ATOM     23  CG  PHE A   2     -12.885 -13.197  -6.183  1.00  0.00    -0.045 A 
ATOM     24  CD1 PHE A   2     -12.723 -12.805  -7.525  1.00  0.00     0.004 A 
ATOM     25  CD2 PHE A   2     -12.094 -14.242  -5.681  1.00  0.00     0.004 A 
ATOM     26  CE1 PHE A   2     -11.748 -13.398  -8.323  1.00  0.00     0.000 A 
ATOM     27  CE2 PHE A   2     -11.135 -14.852  -6.494  1.00  0.00     0.000 A 
ATOM     28  CZ  PHE A   2     -10.956 -14.423  -7.810  1.00  0.00     0.000 A 
ENDBRANCH  22  23
ENDBRANCH  10  22
ENDBRANCH   7  10
ENDBRANCH   5   6
ENDBRANCH   1   5
BRANCH   3  29
ATOM     29  CA  ALA A   4     -19.817 -11.549  -3.046  1.00  0.00     0.168 C 
ATOM     30  CB  ALA A   4     -19.709 -11.715  -1.532  1.00  0.00     0.041 C 
BRANCH  29  31
ATOM     31  C   ALA A   4     -21.163 -11.050  -3.465  1.00  0.00     0.242 C 
ATOM     32  N   ARG A   5     -21.502 -11.139  -4.842  1.00  0.00    -0.343 N 
ATOM     33  O   ALA A   4     -21.966 -10.540  -2.636  1.00  0.00    -0.273 OA
ATOM     34  H   UNL     1     -21.071 -11.912  -5.396  1.00  0.00     0.164 HD
BRANCH  32  35
ATOM     35  CA  ARG A   5     -22.677 -10.496  -5.386  1.00  0.00     0.171 C 
BRANCH  35  36
ATOM     36  C   ARG A   5     -23.896 -11.194  -4.885  1.00  0.00     0.243 C 
ATOM     37  N   ASN A   6     -24.982 -10.402  -4.433  1.00  0.00    -0.341 N 
ATOM     38  O   ARG A   5     -23.965 -12.454  -4.868  1.00  0.00    -0.273 OA
ATOM     39  H   UNL     1     -24.931  -9.364  -4.553  1.00  0.00     0.164 HD
BRANCH  37  40
ATOM     40  CA  ASN A   6     -26.189 -10.994  -3.883  1.00  0.00     0.201 C 
BRANCH  40  41
ATOM     41  C   ASN A   6     -27.052 -11.522  -4.997  1.00  0.00     0.326 C 
ATOM     42  O   ASN A   6     -27.151 -10.892  -6.084  1.00  0.00    -0.250 OA
BRANCH  41  43
ATOM     43  OXT ASN A   6     -27.773 -12.698  -4.811  1.00  0.00    -0.480 OA
ATOM     44  H   UNL     1     -28.370 -13.063  -5.543  1.00  0.00     0.296 HD
ENDBRANCH  41  43
ENDBRANCH  40  41
BRANCH  40  45
ATOM     45  CB  ASN A   6     -26.929  -9.934  -3.062  1.00  0.00     0.136 C 
BRANCH  45  46
ATOM     46  CG  ASN A   6     -28.019 -10.549  -2.252  1.00  0.00     0.220 C 
ATOM     47  ND2 ASN A   6     -27.701 -11.241  -1.053  1.00  0.00    -0.370 N 
ATOM     48  OD1 ASN A   6     -29.213 -10.483  -2.643  1.00  0.00    -0.275 OA
ATOM     49  H   UNL     1     -28.456 -11.688  -0.487  1.00  0.00     0.159 HD
ATOM     50  H   UNL     1     -26.713 -11.314  -0.724  1.00  0.00     0.159 HD
ENDBRANCH  45  46
ENDBRANCH  40  45
ENDBRANCH  37  40
ENDBRANCH  35  36
BRANCH  35  51
ATOM     51  CB  ARG A   5     -22.646 -10.515  -6.914  1.00  0.00     0.037 C 
BRANCH  51  52
ATOM     52  CG  ARG A   5     -21.455  -9.718  -7.458  1.00  0.00     0.024 C 
BRANCH  52  53
ATOM     53  CD  ARG A   5     -21.601  -9.477  -8.962  1.00  0.00     0.116 C 
BRANCH  53  54
ATOM     54  NE  ARG A   5     -21.186  -8.116  -9.284  1.00  0.00    -0.357 N 
ATOM     55  CZ  ARG A   5     -20.070  -7.777 -10.104  1.00  0.00     0.185 C 
ATOM     56  NH2 ARG A   5     -19.200  -8.780 -10.620  1.00  0.00    -0.370 N 
ATOM     57  H   UNL     1     -21.767  -7.335  -8.901  1.00  0.00     0.163 HD
ATOM     58  H   UNL     1     -18.501  -8.535 -11.357  1.00  0.00     0.159 HD
ATOM     59  H   UNL     1     -19.102  -9.718 -10.177  1.00  0.00     0.159 HD
BRANCH  55  60
ATOM     60  NH1 ARG A   5     -19.850  -6.531 -10.380  1.00  0.00    -0.270 NA
ATOM     61  H   UNL     1     -19.046  -6.232 -10.975  1.00  0.00     0.191 HD
ENDBRANCH  55  60
ENDBRANCH  53  54
ENDBRANCH  52  53
ENDBRANCH  51  52
ENDBRANCH  35  51
ENDBRANCH  32  35
ENDBRANCH  29  31
ENDBRANCH   3  29
TORSDOF 24
