REMARK SMILES CC(C)C[C@H](NC(=O)[C@H](Cc1ccccc1)NC(=O)[C@@H](N)CO)C(=O)N[C@@H](CO)C(=O)N[C@@H](CCCNC(=N)N)C(=O)N[C@@H](CCCCN)C(=O)O
REMARK SMILES IDX 30 1 31 2 32 3 27 5 26 6 24 7 25 8 5 10 6 11 7 12 8 13 9 15
REMARK SMILES IDX 17 16 18 17 19 18 20 20 21 21 22 24 23 25 10 27 11 28 12 29
REMARK SMILES IDX 16 30 13 31 15 32 14 33 4 34 2 35 1 36 3 37 28 38 29 39
REMARK SMILES IDX 33 41 41 42 43 43 42 44 44 46 50 47 51 48 52 49 45 51 46 52
REMARK SMILES IDX 47 53 48 54 49 55 34 58 35 59 36 60 37 61 38 62 40 63 39 67
REMARK H PARENT 32 4 26 9 6 14 17 19 21 22 21 23 23 26 29 40 43 45 52 50 49 56
REMARK H PARENT 49 57 37 64 40 65 40 66 39 68
ROOT
ATOM      1  C   SER A   4     -21.170 -11.050  -3.464  1.00  0.00     0.245 C 
ATOM      2  O   SER A   4     -21.977 -10.541  -2.639  1.00  0.00    -0.273 OA
ATOM      3  N   ARG A   5     -21.503 -11.135  -4.843  1.00  0.00    -0.342 N 
ATOM      4  H   UNL     1     -21.067 -11.904  -5.399  1.00  0.00     0.164 HD
ENDROOT
BRANCH   1   5
ATOM      5  CA  SER A   4     -19.830 -11.556  -3.040  1.00  0.00     0.197 C 
BRANCH   5   6
ATOM      6  N   SER A   4     -18.819 -10.623  -3.505  1.00  0.00    -0.340 N 
ATOM      7  C   LEU A   3     -18.387 -10.554  -4.861  1.00  0.00     0.243 C 
ATOM      8  O   LEU A   3     -18.761 -11.404  -5.713  1.00  0.00    -0.273 OA
ATOM      9  H   UNL     1     -18.446  -9.918  -2.828  1.00  0.00     0.164 HD
BRANCH   7  10
ATOM     10  CA  LEU A   3     -17.457  -9.457  -5.240  1.00  0.00     0.171 C 
BRANCH  10  11
ATOM     11  N   LEU A   3     -16.217 -10.020  -5.728  1.00  0.00    -0.343 N 
ATOM     12  C   PHE A   2     -15.252 -10.547  -4.826  1.00  0.00     0.243 C 
ATOM     13  O   PHE A   2     -15.472 -10.577  -3.583  1.00  0.00    -0.273 OA
ATOM     14  H   UNL     1     -16.041 -10.068  -6.758  1.00  0.00     0.164 HD
BRANCH  12  15
ATOM     15  CA  PHE A   2     -13.975 -11.061  -5.385  1.00  0.00     0.175 C 
BRANCH  15  16
ATOM     16  N   PHE A   2     -12.855 -10.484  -4.660  1.00  0.00    -0.343 N 
ATOM     17  C   SER A   1     -12.596  -9.082  -4.702  1.00  0.00     0.239 C 
ATOM     18  O   SER A   1     -13.355  -8.307  -5.349  1.00  0.00    -0.273 OA
ATOM     19  H   UNL     1     -12.220 -11.103  -4.105  1.00  0.00     0.164 HD
BRANCH  17  20
ATOM     20  CA  SER A   1     -11.430  -8.545  -3.930  1.00  0.00     0.167 C 
BRANCH  20  21
ATOM     21  N   SER A   1     -10.865  -7.379  -4.607  1.00  0.00    -0.318 NA
ATOM     22  H   UNL     1     -10.001  -7.089  -4.092  1.00  0.00     0.119 HD
ATOM     23  H   UNL     1     -10.544  -7.674  -5.559  1.00  0.00     0.119 HD
ENDBRANCH  20  21
BRANCH  20  24
ATOM     24  CB  SER A   1     -11.839  -8.205  -2.484  1.00  0.00     0.184 C 
BRANCH  24  25
ATOM     25  OG  SER A   1     -12.062  -6.828  -2.339  1.00  0.00    -0.394 OA
ATOM     26  H   UNL     1     -12.323  -6.688  -1.392  1.00  0.00     0.210 HD
ENDBRANCH  24  25
ENDBRANCH  20  24
ENDBRANCH  17  20
ENDBRANCH  15  16
BRANCH  15  27
ATOM     27  CB  PHE A   2     -13.964 -12.596  -5.327  1.00  0.00     0.070 C 
BRANCH  27  28
ATOM     28  CG  PHE A   2     -12.882 -13.199  -6.184  1.00  0.00    -0.045 A 
ATOM     29  CD1 PHE A   2     -12.722 -12.807  -7.527  1.00  0.00     0.004 A 
ATOM     30  CD2 PHE A   2     -12.091 -14.244  -5.683  1.00  0.00     0.004 A 
ATOM     31  CE1 PHE A   2     -11.747 -13.399  -8.324  1.00  0.00     0.000 A 
ATOM     32  CE2 PHE A   2     -11.133 -14.854  -6.496  1.00  0.00     0.000 A 
ATOM     33  CZ  PHE A   2     -10.954 -14.424  -7.812  1.00  0.00     0.000 A 
ENDBRANCH  27  28
ENDBRANCH  15  27
ENDBRANCH  12  15
ENDBRANCH  10  11
BRANCH  10  34
ATOM     34  CB  LEU A   3     -18.103  -8.527  -6.273  1.00  0.00     0.038 C 
BRANCH  34  35
ATOM     35  CG  LEU A   3     -17.544  -7.092  -6.222  1.00  0.00    -0.015 C 
ATOM     36  CD1 LEU A   3     -18.189  -6.264  -7.337  1.00  0.00     0.007 C 
ATOM     37  CD2 LEU A   3     -17.812  -6.422  -4.860  1.00  0.00     0.007 C 
ENDBRANCH  34  35
ENDBRANCH  10  34
ENDBRANCH   7  10
ENDBRANCH   5   6
BRANCH   5  38
ATOM     38  CB  SER A   4     -19.716 -11.740  -1.523  1.00  0.00     0.191 C 
BRANCH  38  39
ATOM     39  OG  SER A   4     -19.877 -10.521  -0.848  1.00  0.00    -0.394 OA
ATOM     40  H   UNL     1     -19.791 -10.728   0.119  1.00  0.00     0.210 HD
ENDBRANCH  38  39
ENDBRANCH   5  38
ENDBRANCH   1   5
BRANCH   3  41
ATOM     41  CA  ARG A   5     -22.680 -10.495  -5.388  1.00  0.00     0.171 C 
BRANCH  41  42
ATOM     42  C   ARG A   5     -23.897 -11.194  -4.886  1.00  0.00     0.243 C 
ATOM     43  N   LYS A   6     -24.982 -10.405  -4.427  1.00  0.00    -0.341 N 
ATOM     44  O   ARG A   5     -23.963 -12.455  -4.870  1.00  0.00    -0.273 OA
ATOM     45  H   UNL     1     -24.933  -9.366  -4.539  1.00  0.00     0.164 HD
BRANCH  43  46
ATOM     46  CA  LYS A   6     -26.188 -11.006  -3.883  1.00  0.00     0.192 C 
BRANCH  46  47
ATOM     47  C   LYS A   6     -27.043 -11.530  -5.003  1.00  0.00     0.326 C 
ATOM     48  O   LYS A   6     -27.158 -10.883  -6.079  1.00  0.00    -0.250 OA
BRANCH  47  49
ATOM     49  OXT LYS A   6     -27.717 -12.738  -4.847  1.00  0.00    -0.480 OA
ATOM     50  H   UNL     1     -28.304 -13.105  -5.586  1.00  0.00     0.296 HD
ENDBRANCH  47  49
ENDBRANCH  46  47
BRANCH  46  51
ATOM     51  CB  LYS A   6     -26.926  -9.960  -3.034  1.00  0.00     0.037 C 
BRANCH  51  52
ATOM     52  CG  LYS A   6     -28.078 -10.562  -2.213  1.00  0.00     0.004 C 
BRANCH  52  53
ATOM     53  CD  LYS A   6     -29.440 -10.405  -2.911  1.00  0.00     0.015 C 
BRANCH  53  54
ATOM     54  CE  LYS A   6     -30.607 -10.928  -2.055  1.00  0.00     0.077 C 
BRANCH  54  55
ATOM     55  NZ  LYS A   6     -30.612 -12.387  -1.948  1.00  0.00    -0.330 NA
ATOM     56  H   UNL     1     -29.804 -12.694  -1.361  1.00  0.00     0.118 HD
ATOM     57  H   UNL     1     -30.504 -12.807  -2.900  1.00  0.00     0.118 HD
ENDBRANCH  54  55
ENDBRANCH  53  54
ENDBRANCH  52  53
ENDBRANCH  51  52
ENDBRANCH  46  51
ENDBRANCH  43  46
ENDBRANCH  41  42
BRANCH  41  58
ATOM     58  CB  ARG A   5     -22.650 -10.518  -6.917  1.00  0.00     0.037 C 
BRANCH  58  59
ATOM     59  CG  ARG A   5     -21.462  -9.718  -7.460  1.00  0.00     0.024 C 
BRANCH  59  60
ATOM     60  CD  ARG A   5     -21.602  -9.480  -8.964  1.00  0.00     0.116 C 
BRANCH  60  61
ATOM     61  NE  ARG A   5     -21.190  -8.117  -9.282  1.00  0.00    -0.357 N 
ATOM     62  CZ  ARG A   5     -20.075  -7.775 -10.105  1.00  0.00     0.185 C 
ATOM     63  NH2 ARG A   5     -19.200  -8.774 -10.616  1.00  0.00    -0.370 N 
ATOM     64  H   UNL     1     -21.775  -7.342  -8.894  1.00  0.00     0.163 HD
ATOM     65  H   UNL     1     -18.493  -8.517 -11.342  1.00  0.00     0.159 HD
ATOM     66  H   UNL     1     -19.096  -9.710 -10.171  1.00  0.00     0.159 HD
BRANCH  62  67
ATOM     67  NH1 ARG A   5     -19.847  -6.533 -10.392  1.00  0.00    -0.270 NA
ATOM     68  H   UNL     1     -20.457  -5.762 -10.039  1.00  0.00     0.191 HD
ENDBRANCH  62  67
ENDBRANCH  60  61
ENDBRANCH  59  60
ENDBRANCH  58  59
ENDBRANCH  41  58
ENDBRANCH   3  41
TORSDOF 31
