REMARK SMILES CC(C)C[C@H](NC(=O)[C@H](CCC(N)=O)NC(=O)[C@H](C)NC(=O)[C@@H](N)CO)C(=O)N[C@@H](CCCNC(=N)N)C(=O)N[C@@H](CC(N)=O)C(=O)O
REMARK SMILES IDX 7 1 8 2 6 3 9 5 15 6 16 7 17 8 18 10 19 11 20 12 21 13 22 14
REMARK SMILES IDX 23 16 24 17 25 20 26 21 10 23 11 24 12 25 13 26 14 27 5 30
REMARK SMILES IDX 27 31 29 32 28 33 30 35 38 36 40 37 39 38 41 40 46 41 47 42
REMARK SMILES IDX 48 43 42 45 43 46 44 47 45 48 31 51 32 52 33 53 34 54 35 55
REMARK SMILES IDX 37 56 36 60 4 62 2 63 1 64 3 65
REMARK H PARENT 6 4 15 9 20 15 24 18 24 19 26 22 13 28 13 29 29 34 40 39 48 44
REMARK H PARENT 44 49 44 50 34 57 37 58 37 59 36 61
ROOT
ATOM      1  C   GLN A   3     -18.381 -10.533  -4.870  1.00  0.00     0.243 C 
ATOM      2  O   GLN A   3     -18.744 -11.397  -5.714  1.00  0.00    -0.273 OA
ATOM      3  N   LEU A   4     -18.843 -10.574  -3.526  1.00  0.00    -0.343 N 
ATOM      4  H   UNL     1     -18.582  -9.789  -2.885  1.00  0.00     0.164 HD
ENDROOT
BRANCH   1   5
ATOM      5  CA  GLN A   3     -17.451  -9.434  -5.254  1.00  0.00     0.171 C 
BRANCH   5   6
ATOM      6  N   GLN A   3     -16.206 -10.003  -5.738  1.00  0.00    -0.343 N 
ATOM      7  C   ALA A   2     -15.253 -10.557  -4.839  1.00  0.00     0.242 C 
ATOM      8  O   ALA A   2     -15.476 -10.582  -3.596  1.00  0.00    -0.273 OA
ATOM      9  H   UNL     1     -16.002 -10.007  -6.763  1.00  0.00     0.164 HD
BRANCH   7  10
ATOM     10  CA  ALA A   2     -13.968 -11.082  -5.391  1.00  0.00     0.168 C 
ATOM     11  CB  ALA A   2     -13.931 -12.604  -5.286  1.00  0.00     0.041 C 
BRANCH  10  12
ATOM     12  N   ALA A   2     -12.853 -10.486  -4.671  1.00  0.00    -0.343 N 
ATOM     13  C   SER A   1     -12.600  -9.083  -4.709  1.00  0.00     0.239 C 
ATOM     14  O   SER A   1     -13.360  -8.310  -5.355  1.00  0.00    -0.273 OA
ATOM     15  H   UNL     1     -12.222 -11.096  -4.102  1.00  0.00     0.164 HD
BRANCH  13  16
ATOM     16  CA  SER A   1     -11.434  -8.544  -3.933  1.00  0.00     0.167 C 
BRANCH  16  17
ATOM     17  N   SER A   1     -10.867  -7.378  -4.609  1.00  0.00    -0.318 NA
ATOM     18  H   UNL     1     -10.547  -7.672  -5.561  1.00  0.00     0.119 HD
ATOM     19  H   UNL     1     -10.004  -7.089  -4.094  1.00  0.00     0.119 HD
ENDBRANCH  16  17
BRANCH  16  20
ATOM     20  CB  SER A   1     -11.843  -8.206  -2.487  1.00  0.00     0.184 C 
BRANCH  20  21
ATOM     21  OG  SER A   1     -12.061  -6.828  -2.339  1.00  0.00    -0.394 OA
ATOM     22  H   UNL     1     -12.322  -6.690  -1.391  1.00  0.00     0.210 HD
ENDBRANCH  20  21
ENDBRANCH  16  20
ENDBRANCH  13  16
ENDBRANCH  10  12
ENDBRANCH   7  10
ENDBRANCH   5   6
BRANCH   5  23
ATOM     23  CB  GLN A   3     -18.102  -8.524  -6.301  1.00  0.00     0.045 C 
BRANCH  23  24
ATOM     24  CG  GLN A   3     -17.522  -7.110  -6.261  1.00  0.00     0.102 C 
BRANCH  24  25
ATOM     25  CD  GLN A   3     -18.178  -6.250  -7.299  1.00  0.00     0.217 C 
ATOM     26  NE2 GLN A   3     -17.442  -5.807  -8.440  1.00  0.00    -0.370 N 
ATOM     27  OE1 GLN A   3     -19.381  -5.903  -7.158  1.00  0.00    -0.275 OA
ATOM     28  H   UNL     1     -17.874  -5.146  -9.122  1.00  0.00     0.159 HD
ATOM     29  H   UNL     1     -16.456  -6.116  -8.594  1.00  0.00     0.159 HD
ENDBRANCH  24  25
ENDBRANCH  23  24
ENDBRANCH   5  23
ENDBRANCH   1   5
BRANCH   3  30
ATOM     30  CA  LEU A   4     -19.814 -11.541  -3.055  1.00  0.00     0.171 C 
BRANCH  30  31
ATOM     31  C   LEU A   4     -21.168 -11.059  -3.464  1.00  0.00     0.243 C 
ATOM     32  N   ARG A   5     -21.504 -11.141  -4.842  1.00  0.00    -0.343 N 
ATOM     33  O   LEU A   4     -21.971 -10.549  -2.634  1.00  0.00    -0.273 OA
ATOM     34  H   UNL     1     -21.059 -11.899  -5.406  1.00  0.00     0.164 HD
BRANCH  32  35
ATOM     35  CA  ARG A   5     -22.679 -10.497  -5.387  1.00  0.00     0.171 C 
BRANCH  35  36
ATOM     36  C   ARG A   5     -23.897 -11.195  -4.885  1.00  0.00     0.243 C 
ATOM     37  N   ASN A   6     -24.982 -10.402  -4.433  1.00  0.00    -0.341 N 
ATOM     38  O   ARG A   5     -23.966 -12.455  -4.867  1.00  0.00    -0.273 OA
ATOM     39  H   UNL     1     -24.931  -9.364  -4.552  1.00  0.00     0.164 HD
BRANCH  37  40
ATOM     40  CA  ASN A   6     -26.189 -10.994  -3.883  1.00  0.00     0.201 C 
BRANCH  40  41
ATOM     41  C   ASN A   6     -27.053 -11.522  -4.997  1.00  0.00     0.326 C 
ATOM     42  O   ASN A   6     -27.151 -10.892  -6.084  1.00  0.00    -0.250 OA
BRANCH  41  43
ATOM     43  OXT ASN A   6     -27.773 -12.698  -4.811  1.00  0.00    -0.480 OA
ATOM     44  H   UNL     1     -28.370 -13.063  -5.543  1.00  0.00     0.296 HD
ENDBRANCH  41  43
ENDBRANCH  40  41
BRANCH  40  45
ATOM     45  CB  ASN A   6     -26.930  -9.934  -3.062  1.00  0.00     0.136 C 
BRANCH  45  46
ATOM     46  CG  ASN A   6     -28.019 -10.549  -2.252  1.00  0.00     0.220 C 
ATOM     47  ND2 ASN A   6     -27.701 -11.241  -1.053  1.00  0.00    -0.370 N 
ATOM     48  OD1 ASN A   6     -29.213 -10.484  -2.643  1.00  0.00    -0.275 OA
ATOM     49  H   UNL     1     -26.713 -11.314  -0.724  1.00  0.00     0.159 HD
ATOM     50  H   UNL     1     -28.456 -11.688  -0.487  1.00  0.00     0.159 HD
ENDBRANCH  45  46
ENDBRANCH  40  45
ENDBRANCH  37  40
ENDBRANCH  35  36
BRANCH  35  51
ATOM     51  CB  ARG A   5     -22.649 -10.518  -6.916  1.00  0.00     0.037 C 
BRANCH  51  52
ATOM     52  CG  ARG A   5     -21.461  -9.719  -7.458  1.00  0.00     0.024 C 
BRANCH  52  53
ATOM     53  CD  ARG A   5     -21.601  -9.481  -8.963  1.00  0.00     0.116 C 
BRANCH  53  54
ATOM     54  NE  ARG A   5     -21.190  -8.118  -9.282  1.00  0.00    -0.357 N 
ATOM     55  CZ  ARG A   5     -20.075  -7.776 -10.105  1.00  0.00     0.185 C 
ATOM     56  NH2 ARG A   5     -19.198  -8.775 -10.614  1.00  0.00    -0.370 N 
ATOM     57  H   UNL     1     -21.776  -7.343  -8.895  1.00  0.00     0.163 HD
ATOM     58  H   UNL     1     -19.093  -9.709 -10.165  1.00  0.00     0.159 HD
ATOM     59  H   UNL     1     -18.493  -8.518 -11.340  1.00  0.00     0.159 HD
BRANCH  55  60
ATOM     60  NH1 ARG A   5     -19.853  -6.535 -10.400  1.00  0.00    -0.270 NA
ATOM     61  H   UNL     1     -20.467  -5.765 -10.052  1.00  0.00     0.191 HD
ENDBRANCH  55  60
ENDBRANCH  53  54
ENDBRANCH  52  53
ENDBRANCH  51  52
ENDBRANCH  35  51
ENDBRANCH  32  35
ENDBRANCH  30  31
BRANCH  30  62
ATOM     62  CB  LEU A   4     -19.651 -11.690  -1.535  1.00  0.00     0.038 C 
BRANCH  62  63
ATOM     63  CG  LEU A   4     -20.295 -12.955  -0.946  1.00  0.00    -0.015 C 
ATOM     64  CD1 LEU A   4     -19.611 -14.232  -1.462  1.00  0.00     0.007 C 
ATOM     65  CD2 LEU A   4     -20.194 -12.897   0.582  1.00  0.00     0.007 C 
ENDBRANCH  62  63
ENDBRANCH  30  62
ENDBRANCH   3  30
TORSDOF 27
