REMARK SMILES CC(C)C[C@H](NC(=O)[C@H](CO)NC(=O)[C@H](Cc1ccccc1)NC(=O)[C@@H](N)CO)C(=O)N[C@@H](CCCNC(=N)N)C(=O)N[C@@H](CCC(N)=O)C(=O)O
REMARK SMILES IDX 7 1 8 2 6 3 9 5 12 6 13 7 14 8 15 10 23 11 24 12 25 13 26 15
REMARK SMILES IDX 27 16 28 19 29 20 16 22 17 23 18 24 22 25 19 26 21 27 20 28
REMARK SMILES IDX 10 29 11 30 5 32 30 33 32 34 31 35 33 37 41 38 43 39 42 40
REMARK SMILES IDX 44 42 50 43 51 44 52 45 45 47 46 48 47 49 48 50 49 51 34 54
REMARK SMILES IDX 35 55 36 56 37 57 38 58 40 59 39 63 4 65 2 66 1 67 3 68
REMARK H PARENT 6 4 12 9 23 14 27 17 27 18 29 21 11 31 32 36 43 41 52 46 48 52
REMARK H PARENT 48 53 37 60 40 61 40 62 39 64
ROOT
ATOM      1  C   SER A   3     -18.394 -10.517  -4.875  1.00  0.00     0.245 C 
ATOM      2  O   SER A   3     -18.751 -11.389  -5.714  1.00  0.00    -0.273 OA
ATOM      3  N   LEU A   4     -18.843 -10.566  -3.527  1.00  0.00    -0.342 N 
ATOM      4  H   UNL     1     -18.567  -9.789  -2.882  1.00  0.00     0.164 HD
ENDROOT
BRANCH   1   5
ATOM      5  CA  SER A   3     -17.455  -9.426  -5.264  1.00  0.00     0.197 C 
BRANCH   5   6
ATOM      6  N   SER A   3     -16.217 -10.014  -5.731  1.00  0.00    -0.340 N 
ATOM      7  C   PHE A   2     -15.257 -10.543  -4.825  1.00  0.00     0.243 C 
ATOM      8  O   PHE A   2     -15.481 -10.571  -3.583  1.00  0.00    -0.273 OA
ATOM      9  H   UNL     1     -16.041 -10.078  -6.760  1.00  0.00     0.164 HD
BRANCH   7  10
ATOM     10  CA  PHE A   2     -13.978 -11.060  -5.382  1.00  0.00     0.175 C 
BRANCH  10  11
ATOM     11  N   PHE A   2     -12.858 -10.484  -4.657  1.00  0.00    -0.343 N 
ATOM     12  C   SER A   1     -12.597  -9.082  -4.701  1.00  0.00     0.239 C 
ATOM     13  O   SER A   1     -13.354  -8.307  -5.350  1.00  0.00    -0.273 OA
ATOM     14  H   UNL     1     -12.224 -11.103  -4.102  1.00  0.00     0.164 HD
BRANCH  12  15
ATOM     15  CA  SER A   1     -11.430  -8.545  -3.929  1.00  0.00     0.167 C 
BRANCH  15  16
ATOM     16  N   SER A   1     -10.864  -7.379  -4.607  1.00  0.00    -0.318 NA
ATOM     17  H   UNL     1     -10.001  -7.089  -4.092  1.00  0.00     0.119 HD
ATOM     18  H   UNL     1     -10.544  -7.674  -5.559  1.00  0.00     0.119 HD
ENDBRANCH  15  16
BRANCH  15  19
ATOM     19  CB  SER A   1     -11.839  -8.205  -2.484  1.00  0.00     0.184 C 
BRANCH  19  20
ATOM     20  OG  SER A   1     -12.062  -6.828  -2.339  1.00  0.00    -0.394 OA
ATOM     21  H   UNL     1     -12.321  -6.688  -1.391  1.00  0.00     0.210 HD
ENDBRANCH  19  20
ENDBRANCH  15  19
ENDBRANCH  12  15
ENDBRANCH  10  11
BRANCH  10  22
ATOM     22  CB  PHE A   2     -13.965 -12.596  -5.326  1.00  0.00     0.070 C 
BRANCH  22  23
ATOM     23  CG  PHE A   2     -12.883 -13.199  -6.183  1.00  0.00    -0.045 A 
ATOM     24  CD1 PHE A   2     -12.723 -12.807  -7.526  1.00  0.00     0.004 A 
ATOM     25  CD2 PHE A   2     -12.092 -14.244  -5.682  1.00  0.00     0.004 A 
ATOM     26  CE1 PHE A   2     -11.747 -13.399  -8.324  1.00  0.00     0.000 A 
ATOM     27  CE2 PHE A   2     -11.133 -14.853  -6.495  1.00  0.00     0.000 A 
ATOM     28  CZ  PHE A   2     -10.955 -14.424  -7.811  1.00  0.00     0.000 A 
ENDBRANCH  22  23
ENDBRANCH  10  22
ENDBRANCH   7  10
ENDBRANCH   5   6
BRANCH   5  29
ATOM     29  CB  SER A   3     -18.073  -8.531  -6.338  1.00  0.00     0.191 C 
BRANCH  29  30
ATOM     30  OG  SER A   3     -17.199  -7.487  -6.672  1.00  0.00    -0.394 OA
ATOM     31  H   UNL     1     -17.251  -6.824  -5.935  1.00  0.00     0.210 HD
ENDBRANCH  29  30
ENDBRANCH   5  29
ENDBRANCH   1   5
BRANCH   3  32
ATOM     32  CA  LEU A   4     -19.812 -11.536  -3.055  1.00  0.00     0.171 C 
BRANCH  32  33
ATOM     33  C   LEU A   4     -21.168 -11.058  -3.463  1.00  0.00     0.243 C 
ATOM     34  N   ARG A   5     -21.505 -11.140  -4.842  1.00  0.00    -0.343 N 
ATOM     35  O   LEU A   4     -21.971 -10.549  -2.633  1.00  0.00    -0.273 OA
ATOM     36  H   UNL     1     -21.064 -11.901  -5.404  1.00  0.00     0.164 HD
BRANCH  34  37
ATOM     37  CA  ARG A   5     -22.680 -10.495  -5.385  1.00  0.00     0.171 C 
BRANCH  37  38
ATOM     38  C   ARG A   5     -23.897 -11.194  -4.884  1.00  0.00     0.243 C 
ATOM     39  N   GLN A   6     -24.983 -10.406  -4.426  1.00  0.00    -0.341 N 
ATOM     40  O   ARG A   5     -23.964 -12.455  -4.870  1.00  0.00    -0.273 OA
ATOM     41  H   UNL     1     -24.935  -9.366  -4.538  1.00  0.00     0.164 HD
BRANCH  39  42
ATOM     42  CA  GLN A   6     -26.188 -11.007  -3.881  1.00  0.00     0.192 C 
BRANCH  42  43
ATOM     43  C   GLN A   6     -27.047 -11.528  -5.002  1.00  0.00     0.326 C 
ATOM     44  O   GLN A   6     -27.154 -10.883  -6.080  1.00  0.00    -0.250 OA
BRANCH  43  45
ATOM     45  OXT GLN A   6     -27.741 -12.723  -4.841  1.00  0.00    -0.480 OA
ATOM     46  H   UNL     1     -28.329 -13.086  -5.581  1.00  0.00     0.296 HD
ENDBRANCH  43  45
ENDBRANCH  42  43
BRANCH  42  47
ATOM     47  CB  GLN A   6     -26.930  -9.961  -3.037  1.00  0.00     0.047 C 
BRANCH  47  48
ATOM     48  CG  GLN A   6     -28.071 -10.562  -2.212  1.00  0.00     0.102 C 
BRANCH  48  49
ATOM     49  CD  GLN A   6     -27.564 -11.445  -1.108  1.00  0.00     0.217 C 
ATOM     50  NE2 GLN A   6     -27.626 -12.867  -1.228  1.00  0.00    -0.370 N 
ATOM     51  OE1 GLN A   6     -27.059 -10.928  -0.077  1.00  0.00    -0.275 OA
ATOM     52  H   UNL     1     -28.033 -13.315  -2.079  1.00  0.00     0.159 HD
ATOM     53  H   UNL     1     -27.260 -13.476  -0.463  1.00  0.00     0.159 HD
ENDBRANCH  48  49
ENDBRANCH  47  48
ENDBRANCH  42  47
ENDBRANCH  39  42
ENDBRANCH  37  38
BRANCH  37  54
ATOM     54  CB  ARG A   5     -22.651 -10.514  -6.914  1.00  0.00     0.037 C 
BRANCH  54  55
ATOM     55  CG  ARG A   5     -21.456  -9.724  -7.458  1.00  0.00     0.024 C 
BRANCH  55  56
ATOM     56  CD  ARG A   5     -21.601  -9.480  -8.962  1.00  0.00     0.116 C 
BRANCH  56  57
ATOM     57  NE  ARG A   5     -21.189  -8.118  -9.280  1.00  0.00    -0.357 N 
ATOM     58  CZ  ARG A   5     -20.072  -7.775 -10.101  1.00  0.00     0.185 C 
ATOM     59  NH2 ARG A   5     -19.200  -8.775 -10.617  1.00  0.00    -0.370 N 
ATOM     60  H   UNL     1     -21.775  -7.343  -8.892  1.00  0.00     0.163 HD
ATOM     61  H   UNL     1     -18.495  -8.517 -11.343  1.00  0.00     0.159 HD
ATOM     62  H   UNL     1     -19.100  -9.713 -10.177  1.00  0.00     0.159 HD
BRANCH  58  63
ATOM     63  NH1 ARG A   5     -19.842  -6.533 -10.385  1.00  0.00    -0.270 NA
ATOM     64  H   UNL     1     -20.452  -5.762 -10.031  1.00  0.00     0.191 HD
ENDBRANCH  58  63
ENDBRANCH  56  57
ENDBRANCH  55  56
ENDBRANCH  54  55
ENDBRANCH  37  54
ENDBRANCH  34  37
ENDBRANCH  32  33
BRANCH  32  65
ATOM     65  CB  LEU A   4     -19.649 -11.688  -1.535  1.00  0.00     0.038 C 
BRANCH  65  66
ATOM     66  CG  LEU A   4     -20.294 -12.953  -0.947  1.00  0.00    -0.015 C 
ATOM     67  CD1 LEU A   4     -19.611 -14.230  -1.463  1.00  0.00     0.007 C 
ATOM     68  CD2 LEU A   4     -20.194 -12.897   0.581  1.00  0.00     0.007 C 
ENDBRANCH  65  66
ENDBRANCH  32  65
ENDBRANCH   3  32
TORSDOF 29
