REMARK SMILES CC(C)C[C@H](NC(=O)CNC(=O)[C@@H](N)CO)C(=O)N[C@H](C(=O)N[C@@H](CCCNC(=N)N)C(=O)N[C@@H](CC(N)=O)C(=O)O)C(C)C
REMARK SMILES IDX 17 1 18 2 19 3 5 5 6 6 7 7 8 8 9 10 10 11 11 12 12 13 13 15
REMARK SMILES IDX 14 16 15 19 16 20 4 22 2 23 1 24 3 25 20 26 21 27 23 28
REMARK SMILES IDX 22 29 24 31 32 32 34 33 33 34 35 36 40 37 41 38 42 39 36 41
REMARK SMILES IDX 37 42 38 43 39 44 25 47 26 48 27 49 28 50 29 51 31 52 30 56
REMARK SMILES IDX 43 58 44 59 45 60
REMARK H PARENT 19 4 6 9 10 14 14 17 14 18 16 21 23 30 34 35 42 40 38 45 38 46
REMARK H PARENT 28 53 31 54 31 55 30 57
ROOT
ATOM      1  C   LEU A   3     -18.379 -10.551  -4.870  1.00  0.00     0.243 C 
ATOM      2  O   LEU A   3     -18.742 -11.415  -5.713  1.00  0.00    -0.273 OA
ATOM      3  N   VAL A   4     -18.863 -10.569  -3.532  1.00  0.00    -0.342 N 
ATOM      4  H   UNL     1     -18.724  -9.711  -2.950  1.00  0.00     0.164 HD
ENDROOT
BRANCH   1   5
ATOM      5  CA  LEU A   3     -17.442  -9.460  -5.250  1.00  0.00     0.171 C 
BRANCH   5   6
ATOM      6  N   LEU A   3     -16.200 -10.025  -5.740  1.00  0.00    -0.343 N 
ATOM      7  C   GLY A   2     -15.246 -10.571  -4.836  1.00  0.00     0.240 C 
ATOM      8  O   GLY A   2     -15.471 -10.590  -3.594  1.00  0.00    -0.273 OA
ATOM      9  H   UNL     1     -15.997 -10.031  -6.766  1.00  0.00     0.164 HD
BRANCH   7  10
ATOM     10  CA  GLY A   2     -13.965 -11.102  -5.375  1.00  0.00     0.216 C 
BRANCH  10  11
ATOM     11  N   GLY A   2     -12.851 -10.491  -4.676  1.00  0.00    -0.346 N 
ATOM     12  C   SER A   1     -12.601  -9.086  -4.711  1.00  0.00     0.239 C 
ATOM     13  O   SER A   1     -13.363  -8.314  -5.356  1.00  0.00    -0.273 OA
ATOM     14  H   UNL     1     -12.221 -11.109  -4.116  1.00  0.00     0.164 HD
BRANCH  12  15
ATOM     15  CA  SER A   1     -11.436  -8.546  -3.935  1.00  0.00     0.167 C 
BRANCH  15  16
ATOM     16  N   SER A   1     -10.869  -7.380  -4.610  1.00  0.00    -0.318 NA
ATOM     17  H   UNL     1     -10.005  -7.091  -4.095  1.00  0.00     0.119 HD
ATOM     18  H   UNL     1     -10.549  -7.673  -5.562  1.00  0.00     0.119 HD
ENDBRANCH  15  16
BRANCH  15  19
ATOM     19  CB  SER A   1     -11.845  -8.207  -2.488  1.00  0.00     0.184 C 
BRANCH  19  20
ATOM     20  OG  SER A   1     -12.061  -6.829  -2.340  1.00  0.00    -0.394 OA
ATOM     21  H   UNL     1     -12.322  -6.690  -1.392  1.00  0.00     0.210 HD
ENDBRANCH  19  20
ENDBRANCH  15  19
ENDBRANCH  12  15
ENDBRANCH  10  11
ENDBRANCH   7  10
ENDBRANCH   5   6
BRANCH   5  22
ATOM     22  CB  LEU A   3     -18.092  -8.528  -6.279  1.00  0.00     0.038 C 
BRANCH  22  23
ATOM     23  CG  LEU A   3     -17.541  -7.091  -6.223  1.00  0.00    -0.015 C 
ATOM     24  CD1 LEU A   3     -18.188  -6.263  -7.336  1.00  0.00     0.007 C 
ATOM     25  CD2 LEU A   3     -17.814  -6.426  -4.859  1.00  0.00     0.007 C 
ENDBRANCH  22  23
ENDBRANCH   5  22
ENDBRANCH   1   5
BRANCH   3  26
ATOM     26  CA  VAL A   4     -19.810 -11.552  -3.042  1.00  0.00     0.174 C 
BRANCH  26  27
ATOM     27  C   VAL A   4     -21.169 -11.074  -3.453  1.00  0.00     0.243 C 
ATOM     28  N   ARG A   5     -21.502 -11.147  -4.835  1.00  0.00    -0.343 N 
ATOM     29  O   VAL A   4     -21.967 -10.554  -2.627  1.00  0.00    -0.273 OA
ATOM     30  H   UNL     1     -21.056 -11.903  -5.400  1.00  0.00     0.164 HD
BRANCH  28  31
ATOM     31  CA  ARG A   5     -22.675 -10.499  -5.382  1.00  0.00     0.171 C 
BRANCH  31  32
ATOM     32  C   ARG A   5     -23.896 -11.195  -4.883  1.00  0.00     0.243 C 
ATOM     33  N   ASN A   6     -24.981 -10.402  -4.433  1.00  0.00    -0.341 N 
ATOM     34  O   ARG A   5     -23.966 -12.455  -4.867  1.00  0.00    -0.273 OA
ATOM     35  H   UNL     1     -24.929  -9.364  -4.552  1.00  0.00     0.164 HD
BRANCH  33  36
ATOM     36  CA  ASN A   6     -26.189 -10.994  -3.883  1.00  0.00     0.201 C 
BRANCH  36  37
ATOM     37  C   ASN A   6     -27.052 -11.522  -4.997  1.00  0.00     0.326 C 
ATOM     38  O   ASN A   6     -27.151 -10.892  -6.084  1.00  0.00    -0.250 OA
BRANCH  37  39
ATOM     39  OXT ASN A   6     -27.773 -12.698  -4.811  1.00  0.00    -0.480 OA
ATOM     40  H   UNL     1     -28.370 -13.063  -5.543  1.00  0.00     0.296 HD
ENDBRANCH  37  39
ENDBRANCH  36  37
BRANCH  36  41
ATOM     41  CB  ASN A   6     -26.929  -9.934  -3.062  1.00  0.00     0.136 C 
BRANCH  41  42
ATOM     42  CG  ASN A   6     -28.019 -10.549  -2.252  1.00  0.00     0.220 C 
ATOM     43  ND2 ASN A   6     -27.701 -11.241  -1.053  1.00  0.00    -0.370 N 
ATOM     44  OD1 ASN A   6     -29.213 -10.483  -2.643  1.00  0.00    -0.275 OA
ATOM     45  H   UNL     1     -28.456 -11.688  -0.487  1.00  0.00     0.159 HD
ATOM     46  H   UNL     1     -26.712 -11.314  -0.724  1.00  0.00     0.159 HD
ENDBRANCH  41  42
ENDBRANCH  36  41
ENDBRANCH  33  36
ENDBRANCH  31  32
BRANCH  31  47
ATOM     47  CB  ARG A   5     -22.646 -10.519  -6.912  1.00  0.00     0.037 C 
BRANCH  47  48
ATOM     48  CG  ARG A   5     -21.460  -9.717  -7.456  1.00  0.00     0.024 C 
BRANCH  48  49
ATOM     49  CD  ARG A   5     -21.602  -9.478  -8.961  1.00  0.00     0.116 C 
BRANCH  49  50
ATOM     50  NE  ARG A   5     -21.186  -8.116  -9.283  1.00  0.00    -0.357 N 
ATOM     51  CZ  ARG A   5     -20.073  -7.777 -10.106  1.00  0.00     0.185 C 
ATOM     52  NH2 ARG A   5     -19.198  -8.780 -10.616  1.00  0.00    -0.370 N 
ATOM     53  H   UNL     1     -21.765  -7.335  -8.898  1.00  0.00     0.163 HD
ATOM     54  H   UNL     1     -18.500  -8.537 -11.353  1.00  0.00     0.159 HD
ATOM     55  H   UNL     1     -19.094  -9.712 -10.163  1.00  0.00     0.159 HD
BRANCH  51  56
ATOM     56  NH1 ARG A   5     -19.856  -6.532 -10.386  1.00  0.00    -0.270 NA
ATOM     57  H   UNL     1     -19.051  -6.233 -10.981  1.00  0.00     0.191 HD
ENDBRANCH  51  56
ENDBRANCH  49  50
ENDBRANCH  48  49
ENDBRANCH  47  48
ENDBRANCH  31  47
ENDBRANCH  28  31
ENDBRANCH  26  27
BRANCH  26  58
ATOM     58  CB  VAL A   4     -19.637 -11.719  -1.508  1.00  0.00     0.015 C 
ATOM     59  CG1 VAL A   4     -20.382 -12.952  -0.988  1.00  0.00     0.010 C 
ATOM     60  CG2 VAL A   4     -18.152 -11.862  -1.114  1.00  0.00     0.010 C 
ENDBRANCH  26  58
ENDBRANCH   3  26
TORSDOF 25
