REMARK SMILES CC(C)C[C@H](NC(=O)[C@H](CCC(N)=O)NC(=O)[C@H](Cc1ccccc1)NC(=O)CN)C(=O)N[C@@H](CCCNC(=N)N)C(=O)N[C@@H](CC(N)=O)C(=O)O
REMARK SMILES IDX 5 1 6 2 7 3 8 4 9 6 15 7 16 8 17 9 18 11 26 12 27 13 28 14
REMARK SMILES IDX 29 16 30 17 19 20 20 21 21 22 25 23 22 24 24 25 23 26 10 27
REMARK SMILES IDX 11 28 12 29 13 30 14 31 31 34 33 35 32 36 34 38 42 39 44 40
REMARK SMILES IDX 43 41 45 43 50 44 51 45 52 46 46 48 47 49 48 50 49 51 35 54
REMARK SMILES IDX 36 55 37 56 38 57 39 58 41 59 40 63 4 65 2 66 1 67 3 68
REMARK H PARENT 6 5 15 10 26 15 30 18 30 19 13 32 13 33 33 37 44 42 52 47
REMARK H PARENT 48 52 48 53 38 60 41 61 41 62 40 64
ROOT
ATOM      1  CA  LEU A   4     -19.816 -11.542  -3.054  1.00  0.00     0.171 C 
ENDROOT
BRANCH   1   2
ATOM      2  N   LEU A   4     -18.845 -10.575  -3.524  1.00  0.00    -0.343 N 
ATOM      3  C   GLN A   3     -18.385 -10.532  -4.868  1.00  0.00     0.243 C 
ATOM      4  O   GLN A   3     -18.745 -11.396  -5.714  1.00  0.00    -0.273 OA
ATOM      5  H   UNL     1     -18.584  -9.791  -2.882  1.00  0.00     0.164 HD
BRANCH   3   6
ATOM      6  CA  GLN A   3     -17.458  -9.431  -5.249  1.00  0.00     0.171 C 
BRANCH   6   7
ATOM      7  N   GLN A   3     -16.213 -10.000  -5.728  1.00  0.00    -0.342 N 
ATOM      8  C   PHE A   2     -15.256 -10.542  -4.825  1.00  0.00     0.243 C 
ATOM      9  O   PHE A   2     -15.480 -10.576  -3.584  1.00  0.00    -0.273 OA
ATOM     10  H   UNL     1     -16.022 -10.026  -6.756  1.00  0.00     0.164 HD
BRANCH   8  11
ATOM     11  CA  PHE A   2     -13.976 -11.061  -5.382  1.00  0.00     0.175 C 
BRANCH  11  12
ATOM     12  N   PHE A   2     -12.854 -10.484  -4.659  1.00  0.00    -0.343 N 
ATOM     13  C   GLY A   1     -12.600  -9.082  -4.704  1.00  0.00     0.234 C 
ATOM     14  O   GLY A   1     -13.361  -8.315  -5.357  1.00  0.00    -0.274 OA
ATOM     15  H   UNL     1     -12.215 -11.100  -4.105  1.00  0.00     0.164 HD
BRANCH  13  16
ATOM     16  CA  GLY A   1     -11.454  -8.525  -3.919  1.00  0.00     0.178 C 
BRANCH  16  17
ATOM     17  N   GLY A   1     -10.868  -7.364  -4.578  1.00  0.00    -0.322 NA
ATOM     18  H   UNL     1     -10.609  -7.621  -5.559  1.00  0.00     0.119 HD
ATOM     19  H   UNL     1     -11.578  -6.596  -4.619  1.00  0.00     0.119 HD
ENDBRANCH  16  17
ENDBRANCH  13  16
ENDBRANCH  11  12
BRANCH  11  20
ATOM     20  CB  PHE A   2     -13.964 -12.596  -5.325  1.00  0.00     0.070 C 
BRANCH  20  21
ATOM     21  CG  PHE A   2     -12.883 -13.199  -6.183  1.00  0.00    -0.045 A 
ATOM     22  CD1 PHE A   2     -12.723 -12.807  -7.526  1.00  0.00     0.004 A 
ATOM     23  CD2 PHE A   2     -12.091 -14.244  -5.682  1.00  0.00     0.004 A 
ATOM     24  CE1 PHE A   2     -11.747 -13.399  -8.324  1.00  0.00     0.000 A 
ATOM     25  CE2 PHE A   2     -11.133 -14.854  -6.496  1.00  0.00     0.000 A 
ATOM     26  CZ  PHE A   2     -10.955 -14.424  -7.811  1.00  0.00     0.000 A 
ENDBRANCH  20  21
ENDBRANCH  11  20
ENDBRANCH   8  11
ENDBRANCH   6   7
BRANCH   6  27
ATOM     27  CB  GLN A   3     -18.106  -8.523  -6.300  1.00  0.00     0.045 C 
BRANCH  27  28
ATOM     28  CG  GLN A   3     -17.522  -7.110  -6.262  1.00  0.00     0.102 C 
BRANCH  28  29
ATOM     29  CD  GLN A   3     -18.179  -6.248  -7.298  1.00  0.00     0.217 C 
ATOM     30  NE2 GLN A   3     -17.430  -5.755  -8.409  1.00  0.00    -0.370 N 
ATOM     31  OE1 GLN A   3     -19.394  -5.934  -7.175  1.00  0.00    -0.275 OA
ATOM     32  H   UNL     1     -17.864  -5.084  -9.081  1.00  0.00     0.159 HD
ATOM     33  H   UNL     1     -16.433  -6.032  -8.549  1.00  0.00     0.159 HD
ENDBRANCH  28  29
ENDBRANCH  27  28
ENDBRANCH   6  27
ENDBRANCH   3   6
ENDBRANCH   1   2
BRANCH   1  34
ATOM     34  C   LEU A   4     -21.169 -11.060  -3.463  1.00  0.00     0.243 C 
ATOM     35  N   ARG A   5     -21.505 -11.141  -4.842  1.00  0.00    -0.343 N 
ATOM     36  O   LEU A   4     -21.972 -10.549  -2.634  1.00  0.00    -0.273 OA
ATOM     37  H   UNL     1     -21.060 -11.899  -5.406  1.00  0.00     0.164 HD
BRANCH  35  38
ATOM     38  CA  ARG A   5     -22.679 -10.497  -5.387  1.00  0.00     0.171 C 
BRANCH  38  39
ATOM     39  C   ARG A   5     -23.897 -11.195  -4.886  1.00  0.00     0.243 C 
ATOM     40  N   ASN A   6     -24.982 -10.402  -4.433  1.00  0.00    -0.341 N 
ATOM     41  O   ARG A   5     -23.966 -12.455  -4.868  1.00  0.00    -0.273 OA
ATOM     42  H   UNL     1     -24.931  -9.364  -4.552  1.00  0.00     0.164 HD
BRANCH  40  43
ATOM     43  CA  ASN A   6     -26.189 -10.994  -3.883  1.00  0.00     0.201 C 
BRANCH  43  44
ATOM     44  C   ASN A   6     -27.053 -11.522  -4.997  1.00  0.00     0.326 C 
ATOM     45  O   ASN A   6     -27.151 -10.892  -6.084  1.00  0.00    -0.250 OA
BRANCH  44  46
ATOM     46  OXT ASN A   6     -27.773 -12.698  -4.811  1.00  0.00    -0.480 OA
ATOM     47  H   UNL     1     -28.371 -13.062  -5.543  1.00  0.00     0.296 HD
ENDBRANCH  44  46
ENDBRANCH  43  44
BRANCH  43  48
ATOM     48  CB  ASN A   6     -26.930  -9.934  -3.062  1.00  0.00     0.136 C 
BRANCH  48  49
ATOM     49  CG  ASN A   6     -28.019 -10.549  -2.252  1.00  0.00     0.220 C 
ATOM     50  ND2 ASN A   6     -27.701 -11.241  -1.053  1.00  0.00    -0.370 N 
ATOM     51  OD1 ASN A   6     -29.213 -10.484  -2.643  1.00  0.00    -0.275 OA
ATOM     52  H   UNL     1     -26.713 -11.314  -0.724  1.00  0.00     0.159 HD
ATOM     53  H   UNL     1     -28.456 -11.688  -0.487  1.00  0.00     0.159 HD
ENDBRANCH  48  49
ENDBRANCH  43  48
ENDBRANCH  40  43
ENDBRANCH  38  39
BRANCH  38  54
ATOM     54  CB  ARG A   5     -22.649 -10.518  -6.916  1.00  0.00     0.037 C 
BRANCH  54  55
ATOM     55  CG  ARG A   5     -21.462  -9.717  -7.458  1.00  0.00     0.024 C 
BRANCH  55  56
ATOM     56  CD  ARG A   5     -21.602  -9.477  -8.963  1.00  0.00     0.116 C 
BRANCH  56  57
ATOM     57  NE  ARG A   5     -21.184  -8.116  -9.282  1.00  0.00    -0.357 N 
ATOM     58  CZ  ARG A   5     -20.072  -7.778 -10.106  1.00  0.00     0.185 C 
ATOM     59  NH2 ARG A   5     -19.198  -8.782 -10.615  1.00  0.00    -0.370 N 
ATOM     60  H   UNL     1     -21.764  -7.335  -8.898  1.00  0.00     0.163 HD
ATOM     61  H   UNL     1     -18.501  -8.540 -11.355  1.00  0.00     0.159 HD
ATOM     62  H   UNL     1     -19.090  -9.711 -10.158  1.00  0.00     0.159 HD
BRANCH  58  63
ATOM     63  NH1 ARG A   5     -19.861  -6.534 -10.396  1.00  0.00    -0.270 NA
ATOM     64  H   UNL     1     -19.062  -6.238 -11.000  1.00  0.00     0.191 HD
ENDBRANCH  58  63
ENDBRANCH  56  57
ENDBRANCH  55  56
ENDBRANCH  54  55
ENDBRANCH  38  54
ENDBRANCH  35  38
ENDBRANCH   1  34
BRANCH   1  65
ATOM     65  CB  LEU A   4     -19.652 -11.691  -1.534  1.00  0.00     0.038 C 
BRANCH  65  66
ATOM     66  CG  LEU A   4     -20.296 -12.956  -0.946  1.00  0.00    -0.015 C 
ATOM     67  CD1 LEU A   4     -19.611 -14.232  -1.462  1.00  0.00     0.007 C 
ATOM     68  CD2 LEU A   4     -20.194 -12.898   0.583  1.00  0.00     0.007 C 
ENDBRANCH  65  66
ENDBRANCH   1  65
TORSDOF 27
