REMARK SMILES CC(C)C[C@H](NC(=O)[C@H](C)NC(=O)[C@@H](N)CO)C(=O)N[C@@H](CCCNC(=N)N)C(=O)N[C@@H](CCCNC(=N)N)C(=O)N[C@@H](CC(N)=O)C(=O)O
REMARK SMILES IDX 18 1 19 2 20 3 5 5 6 6 7 7 8 8 9 10 10 11 11 12 12 13 13 14
REMARK SMILES IDX 14 16 15 17 16 20 17 21 4 23 2 24 1 25 3 26 21 27 29 28
REMARK SMILES IDX 31 29 30 30 32 32 40 33 42 34 41 35 43 37 48 38 49 39 50 40
REMARK SMILES IDX 44 42 45 43 46 44 47 45 33 48 34 49 35 50 36 51 37 52 39 53
REMARK SMILES IDX 38 57 22 59 23 60 24 61 25 62 26 63 28 64 27 68
REMARK H PARENT 20 4 6 9 11 15 15 18 15 19 17 22 31 31 42 36 50 41 46 46 46 47
REMARK H PARENT 36 54 39 55 39 56 38 58 25 65 28 66 28 67 27 69
ROOT
ATOM      1  C   LEU A   3     -18.380 -10.547  -4.867  1.00  0.00     0.243 C 
ATOM      2  O   LEU A   3     -18.749 -11.406  -5.713  1.00  0.00    -0.273 OA
ATOM      3  N   ARG A   4     -18.844 -10.583  -3.521  1.00  0.00    -0.343 N 
ATOM      4  H   UNL     1     -18.586  -9.797  -2.880  1.00  0.00     0.164 HD
ENDROOT
BRANCH   1   5
ATOM      5  CA  LEU A   3     -17.445  -9.457  -5.248  1.00  0.00     0.171 C 
BRANCH   5   6
ATOM      6  N   LEU A   3     -16.206 -10.024  -5.741  1.00  0.00    -0.343 N 
ATOM      7  C   ALA A   2     -15.247 -10.565  -4.841  1.00  0.00     0.242 C 
ATOM      8  O   ALA A   2     -15.468 -10.585  -3.597  1.00  0.00    -0.273 OA
ATOM      9  H   UNL     1     -16.013 -10.044  -6.769  1.00  0.00     0.164 HD
BRANCH   7  10
ATOM     10  CA  ALA A   2     -13.962 -11.086  -5.392  1.00  0.00     0.168 C 
ATOM     11  CB  ALA A   2     -13.924 -12.607  -5.286  1.00  0.00     0.041 C 
BRANCH  10  12
ATOM     12  N   ALA A   2     -12.849 -10.486  -4.673  1.00  0.00    -0.343 N 
ATOM     13  C   SER A   1     -12.601  -9.082  -4.713  1.00  0.00     0.239 C 
ATOM     14  O   SER A   1     -13.365  -8.314  -5.360  1.00  0.00    -0.273 OA
ATOM     15  H   UNL     1     -12.217 -11.093  -4.101  1.00  0.00     0.164 HD
BRANCH  13  16
ATOM     16  CA  SER A   1     -11.441  -8.535  -3.933  1.00  0.00     0.167 C 
BRANCH  16  17
ATOM     17  N   SER A   1     -10.854  -7.386  -4.625  1.00  0.00    -0.318 NA
ATOM     18  H   UNL     1     -10.035  -7.041  -4.072  1.00  0.00     0.119 HD
ATOM     19  H   UNL     1     -11.546  -6.605  -4.697  1.00  0.00     0.119 HD
ENDBRANCH  16  17
BRANCH  16  20
ATOM     20  CB  SER A   1     -11.846  -8.204  -2.482  1.00  0.00     0.184 C 
BRANCH  20  21
ATOM     21  OG  SER A   1     -12.062  -6.828  -2.319  1.00  0.00    -0.394 OA
ATOM     22  H   UNL     1     -12.320  -6.699  -1.369  1.00  0.00     0.210 HD
ENDBRANCH  20  21
ENDBRANCH  16  20
ENDBRANCH  13  16
ENDBRANCH  10  12
ENDBRANCH   7  10
ENDBRANCH   5   6
BRANCH   5  23
ATOM     23  CB  LEU A   3     -18.095  -8.526  -6.278  1.00  0.00     0.038 C 
BRANCH  23  24
ATOM     24  CG  LEU A   3     -17.542  -7.090  -6.223  1.00  0.00    -0.015 C 
ATOM     25  CD1 LEU A   3     -18.189  -6.262  -7.337  1.00  0.00     0.007 C 
ATOM     26  CD2 LEU A   3     -17.814  -6.424  -4.860  1.00  0.00     0.007 C 
ENDBRANCH  23  24
ENDBRANCH   5  23
ENDBRANCH   1   5
BRANCH   3  27
ATOM     27  CA  ARG A   4     -19.820 -11.544  -3.052  1.00  0.00     0.171 C 
BRANCH  27  28
ATOM     28  C   ARG A   4     -21.171 -11.058  -3.463  1.00  0.00     0.243 C 
ATOM     29  N   ARG A   5     -21.505 -11.140  -4.842  1.00  0.00    -0.343 N 
ATOM     30  O   ARG A   4     -21.973 -10.546  -2.635  1.00  0.00    -0.273 OA
ATOM     31  H   UNL     1     -21.063 -11.901  -5.404  1.00  0.00     0.164 HD
BRANCH  29  32
ATOM     32  CA  ARG A   5     -22.680 -10.497  -5.388  1.00  0.00     0.171 C 
BRANCH  32  33
ATOM     33  C   ARG A   5     -23.898 -11.194  -4.886  1.00  0.00     0.243 C 
ATOM     34  N   ASN A   6     -24.982 -10.402  -4.433  1.00  0.00    -0.341 N 
ATOM     35  O   ARG A   5     -23.966 -12.455  -4.867  1.00  0.00    -0.273 OA
ATOM     36  H   UNL     1     -24.931  -9.364  -4.552  1.00  0.00     0.164 HD
BRANCH  34  37
ATOM     37  CA  ASN A   6     -26.190 -10.994  -3.883  1.00  0.00     0.201 C 
BRANCH  37  38
ATOM     38  C   ASN A   6     -27.053 -11.522  -4.997  1.00  0.00     0.326 C 
ATOM     39  O   ASN A   6     -27.151 -10.892  -6.084  1.00  0.00    -0.250 OA
BRANCH  38  40
ATOM     40  OXT ASN A   6     -27.773 -12.698  -4.811  1.00  0.00    -0.480 OA
ATOM     41  H   UNL     1     -28.370 -13.063  -5.543  1.00  0.00     0.296 HD
ENDBRANCH  38  40
ENDBRANCH  37  38
BRANCH  37  42
ATOM     42  CB  ASN A   6     -26.930  -9.934  -3.062  1.00  0.00     0.136 C 
BRANCH  42  43
ATOM     43  CG  ASN A   6     -28.019 -10.549  -2.252  1.00  0.00     0.220 C 
ATOM     44  ND2 ASN A   6     -27.701 -11.241  -1.053  1.00  0.00    -0.370 N 
ATOM     45  OD1 ASN A   6     -29.213 -10.484  -2.642  1.00  0.00    -0.275 OA
ATOM     46  H   UNL     1     -28.456 -11.688  -0.487  1.00  0.00     0.159 HD
ATOM     47  H   UNL     1     -26.713 -11.314  -0.724  1.00  0.00     0.159 HD
ENDBRANCH  42  43
ENDBRANCH  37  42
ENDBRANCH  34  37
ENDBRANCH  32  33
BRANCH  32  48
ATOM     48  CB  ARG A   5     -22.649 -10.518  -6.916  1.00  0.00     0.037 C 
BRANCH  48  49
ATOM     49  CG  ARG A   5     -21.461  -9.719  -7.459  1.00  0.00     0.024 C 
BRANCH  49  50
ATOM     50  CD  ARG A   5     -21.602  -9.480  -8.963  1.00  0.00     0.116 C 
BRANCH  50  51
ATOM     51  NE  ARG A   5     -21.189  -8.117  -9.282  1.00  0.00    -0.357 N 
ATOM     52  CZ  ARG A   5     -20.075  -7.775 -10.105  1.00  0.00     0.185 C 
ATOM     53  NH2 ARG A   5     -19.200  -8.774 -10.616  1.00  0.00    -0.370 N 
ATOM     54  H   UNL     1     -21.774  -7.342  -8.893  1.00  0.00     0.163 HD
ATOM     55  H   UNL     1     -19.096  -9.710 -10.171  1.00  0.00     0.159 HD
ATOM     56  H   UNL     1     -18.494  -8.517 -11.342  1.00  0.00     0.159 HD
BRANCH  52  57
ATOM     57  NH1 ARG A   5     -19.847  -6.533 -10.392  1.00  0.00    -0.270 NA
ATOM     58  H   UNL     1     -20.457  -5.762 -10.039  1.00  0.00     0.191 HD
ENDBRANCH  52  57
ENDBRANCH  50  51
ENDBRANCH  49  50
ENDBRANCH  48  49
ENDBRANCH  32  48
ENDBRANCH  29  32
ENDBRANCH  27  28
BRANCH  27  59
ATOM     59  CB  ARG A   4     -19.665 -11.701  -1.529  1.00  0.00     0.037 C 
BRANCH  59  60
ATOM     60  CG  ARG A   4     -20.320 -12.967  -0.971  1.00  0.00     0.024 C 
BRANCH  60  61
ATOM     61  CD  ARG A   4     -19.607 -14.245  -1.440  1.00  0.00     0.116 C 
BRANCH  61  62
ATOM     62  NE  ARG A   4     -20.076 -15.407  -0.682  1.00  0.00    -0.357 N 
ATOM     63  CZ  ARG A   4     -19.576 -16.740  -0.890  1.00  0.00     0.185 C 
ATOM     64  NH2 ARG A   4     -20.091 -17.813  -0.102  1.00  0.00    -0.370 N 
ATOM     65  H   UNL     1     -20.818 -15.278   0.044  1.00  0.00     0.163 HD
ATOM     66  H   UNL     1     -20.825 -17.637   0.620  1.00  0.00     0.159 HD
ATOM     67  H   UNL     1     -19.741 -18.787  -0.237  1.00  0.00     0.159 HD
BRANCH  63  68
ATOM     68  NH1 ARG A   4     -18.665 -16.993  -1.778  1.00  0.00    -0.270 NA
ATOM     69  H   UNL     1     -18.240 -16.265  -2.393  1.00  0.00     0.191 HD
ENDBRANCH  63  68
ENDBRANCH  61  62
ENDBRANCH  60  61
ENDBRANCH  59  60
ENDBRANCH  27  59
ENDBRANCH   3  27
TORSDOF 29
