REMARK SMILES N=C(N)NCCC[C@H](NC(=O)CNC(=O)[C@H](Cc1c[nH]cn1)NC(=O)[C@H](Cc1ccccc1)NC(=O)[C@@H](N)CO)C(=O)N[C@@H](CC(N)=O)C(=O)O
REMARK SMILES IDX 14 1 15 2 13 3 16 5 23 6 24 7 25 8 26 10 34 11 35 12 36 13
REMARK SMILES IDX 37 15 38 16 39 19 40 20 27 22 28 23 29 24 33 25 30 26 32 27
REMARK SMILES IDX 31 28 17 29 18 30 22 31 19 32 21 33 20 34 12 36 10 37 9 38
REMARK SMILES IDX 11 39 8 41 41 42 43 43 42 44 44 46 49 47 50 48 51 49 45 51
REMARK SMILES IDX 46 52 47 53 48 54 7 57 6 58 5 59 4 60 2 61 3 62 1 66
REMARK H PARENT 13 4 23 9 34 14 38 17 38 18 40 21 20 35 9 40 43 45 51 50 47 55
REMARK H PARENT 47 56 4 63 3 64 3 65 1 67
ROOT
ATOM      1  C   HIS A   3     -18.394 -10.538  -4.854  1.00  0.00     0.243 C 
ATOM      2  O   HIS A   3     -18.761 -11.388  -5.711  1.00  0.00    -0.273 OA
ATOM      3  N   GLY A   4     -18.816 -10.634  -3.493  1.00  0.00    -0.345 N 
ATOM      4  H   UNL     1     -18.402  -9.991  -2.781  1.00  0.00     0.164 HD
ENDROOT
BRANCH   1   5
ATOM      5  CA  HIS A   3     -17.468  -9.430  -5.234  1.00  0.00     0.177 C 
BRANCH   5   6
ATOM      6  N   HIS A   3     -16.222  -9.996  -5.718  1.00  0.00    -0.342 N 
ATOM      7  C   PHE A   2     -15.260 -10.540  -4.821  1.00  0.00     0.243 C 
ATOM      8  O   PHE A   2     -15.478 -10.575  -3.579  1.00  0.00    -0.273 OA
ATOM      9  H   UNL     1     -16.038 -10.028  -6.747  1.00  0.00     0.164 HD
BRANCH   7  10
ATOM     10  CA  PHE A   2     -13.981 -11.058  -5.384  1.00  0.00     0.175 C 
BRANCH  10  11
ATOM     11  N   PHE A   2     -12.858 -10.482  -4.663  1.00  0.00    -0.343 N 
ATOM     12  C   SER A   1     -12.600  -9.079  -4.707  1.00  0.00     0.239 C 
ATOM     13  O   SER A   1     -13.361  -8.309  -5.356  1.00  0.00    -0.273 OA
ATOM     14  H   UNL     1     -12.223 -11.100  -4.107  1.00  0.00     0.164 HD
BRANCH  12  15
ATOM     15  CA  SER A   1     -11.439  -8.536  -3.931  1.00  0.00     0.167 C 
BRANCH  15  16
ATOM     16  N   SER A   1     -10.850  -7.388  -4.623  1.00  0.00    -0.318 NA
ATOM     17  H   UNL     1     -10.031  -7.044  -4.072  1.00  0.00     0.119 HD
ATOM     18  H   UNL     1     -11.542  -6.606  -4.695  1.00  0.00     0.119 HD
ENDBRANCH  15  16
BRANCH  15  19
ATOM     19  CB  SER A   1     -11.842  -8.203  -2.479  1.00  0.00     0.184 C 
BRANCH  19  20
ATOM     20  OG  SER A   1     -12.063  -6.828  -2.319  1.00  0.00    -0.394 OA
ATOM     21  H   UNL     1     -12.320  -6.698  -1.369  1.00  0.00     0.210 HD
ENDBRANCH  19  20
ENDBRANCH  15  19
ENDBRANCH  12  15
ENDBRANCH  10  11
BRANCH  10  22
ATOM     22  CB  PHE A   2     -13.967 -12.594  -5.327  1.00  0.00     0.070 C 
BRANCH  22  23
ATOM     23  CG  PHE A   2     -12.884 -13.198  -6.183  1.00  0.00    -0.045 A 
ATOM     24  CD1 PHE A   2     -12.723 -12.806  -7.526  1.00  0.00     0.004 A 
ATOM     25  CD2 PHE A   2     -12.093 -14.243  -5.682  1.00  0.00     0.004 A 
ATOM     26  CE1 PHE A   2     -11.747 -13.398  -8.324  1.00  0.00     0.000 A 
ATOM     27  CE2 PHE A   2     -11.134 -14.853  -6.495  1.00  0.00     0.000 A 
ATOM     28  CZ  PHE A   2     -10.955 -14.424  -7.811  1.00  0.00     0.000 A 
ENDBRANCH  22  23
ENDBRANCH  10  22
ENDBRANCH   7  10
ENDBRANCH   5   6
BRANCH   5  29
ATOM     29  CB  HIS A   3     -18.109  -8.512  -6.284  1.00  0.00     0.093 C 
BRANCH  29  30
ATOM     30  CG  HIS A   3     -17.498  -7.142  -6.257  1.00  0.00     0.061 A 
ATOM     31  ND1 HIS A   3     -17.954  -6.125  -5.498  1.00  0.00    -0.242 NA
ATOM     32  CD2 HIS A   3     -16.351  -6.759  -6.915  1.00  0.00     0.107 A 
ATOM     33  CE1 HIS A   3     -17.073  -5.129  -5.731  1.00  0.00     0.196 A 
ATOM     34  NE2 HIS A   3     -16.093  -5.486  -6.583  1.00  0.00    -0.351 N 
ATOM     35  H   UNL     1     -15.293  -4.899  -6.907  1.00  0.00     0.167 HD
ENDBRANCH  29  30
ENDBRANCH   5  29
ENDBRANCH   1   5
BRANCH   3  36
ATOM     36  CA  GLY A   4     -19.835 -11.563  -3.041  1.00  0.00     0.216 C 
BRANCH  36  37
ATOM     37  C   GLY A   4     -21.163 -11.055  -3.467  1.00  0.00     0.240 C 
ATOM     38  N   ARG A   5     -21.501 -11.138  -4.845  1.00  0.00    -0.343 N 
ATOM     39  O   GLY A   4     -21.959 -10.548  -2.631  1.00  0.00    -0.273 OA
ATOM     40  H   UNL     1     -21.066 -11.906  -5.402  1.00  0.00     0.164 HD
BRANCH  38  41
ATOM     41  CA  ARG A   5     -22.678 -10.496  -5.388  1.00  0.00     0.171 C 
BRANCH  41  42
ATOM     42  C   ARG A   5     -23.896 -11.194  -4.885  1.00  0.00     0.243 C 
ATOM     43  N   ASN A   6     -24.982 -10.402  -4.433  1.00  0.00    -0.341 N 
ATOM     44  O   ARG A   5     -23.964 -12.454  -4.868  1.00  0.00    -0.273 OA
ATOM     45  H   UNL     1     -24.931  -9.364  -4.553  1.00  0.00     0.164 HD
BRANCH  43  46
ATOM     46  CA  ASN A   6     -26.189 -10.994  -3.883  1.00  0.00     0.201 C 
BRANCH  46  47
ATOM     47  C   ASN A   6     -27.052 -11.522  -4.997  1.00  0.00     0.326 C 
ATOM     48  O   ASN A   6     -27.151 -10.892  -6.084  1.00  0.00    -0.250 OA
BRANCH  47  49
ATOM     49  OXT ASN A   6     -27.773 -12.698  -4.811  1.00  0.00    -0.480 OA
ATOM     50  H   UNL     1     -28.370 -13.063  -5.543  1.00  0.00     0.296 HD
ENDBRANCH  47  49
ENDBRANCH  46  47
BRANCH  46  51
ATOM     51  CB  ASN A   6     -26.929  -9.934  -3.062  1.00  0.00     0.136 C 
BRANCH  51  52
ATOM     52  CG  ASN A   6     -28.019 -10.549  -2.252  1.00  0.00     0.220 C 
ATOM     53  ND2 ASN A   6     -27.701 -11.241  -1.053  1.00  0.00    -0.370 N 
ATOM     54  OD1 ASN A   6     -29.213 -10.483  -2.643  1.00  0.00    -0.275 OA
ATOM     55  H   UNL     1     -26.713 -11.314  -0.724  1.00  0.00     0.159 HD
ATOM     56  H   UNL     1     -28.456 -11.688  -0.487  1.00  0.00     0.159 HD
ENDBRANCH  51  52
ENDBRANCH  46  51
ENDBRANCH  43  46
ENDBRANCH  41  42
BRANCH  41  57
ATOM     57  CB  ARG A   5     -22.649 -10.517  -6.916  1.00  0.00     0.037 C 
BRANCH  57  58
ATOM     58  CG  ARG A   5     -21.462  -9.716  -7.459  1.00  0.00     0.024 C 
BRANCH  58  59
ATOM     59  CD  ARG A   5     -21.603  -9.477  -8.964  1.00  0.00     0.116 C 
BRANCH  59  60
ATOM     60  NE  ARG A   5     -21.186  -8.116  -9.285  1.00  0.00    -0.357 N 
ATOM     61  CZ  ARG A   5     -20.069  -7.777 -10.102  1.00  0.00     0.185 C 
ATOM     62  NH2 ARG A   5     -19.198  -8.781 -10.617  1.00  0.00    -0.370 N 
ATOM     63  H   UNL     1     -21.768  -7.335  -8.903  1.00  0.00     0.163 HD
ATOM     64  H   UNL     1     -19.097  -9.715 -10.169  1.00  0.00     0.159 HD
ATOM     65  H   UNL     1     -18.498  -8.536 -11.353  1.00  0.00     0.159 HD
BRANCH  61  66
ATOM     66  NH1 ARG A   5     -19.849  -6.531 -10.378  1.00  0.00    -0.270 NA
ATOM     67  H   UNL     1     -19.043  -6.232 -10.971  1.00  0.00     0.191 HD
ENDBRANCH  61  66
ENDBRANCH  59  60
ENDBRANCH  58  59
ENDBRANCH  57  58
ENDBRANCH  41  57
ENDBRANCH  38  41
ENDBRANCH  36  37
ENDBRANCH   3  36
TORSDOF 26
