REMARK SMILES CC(C)C[C@H](NC(=O)[C@H](C)NC(=O)[C@@H](N)CO)C(=O)N[C@@H](Cc1ccc(O)cc1)C(=O)N[C@@H](CCCNC(=N)N)C(=O)N[C@@H](CC(N)=O)C(=O)O
REMARK SMILES IDX 18 1 19 2 20 3 5 5 6 6 7 7 8 8 9 10 10 11 11 12 12 13 13 14
REMARK SMILES IDX 14 16 15 17 16 20 17 21 4 23 2 24 1 25 3 26 21 27 30 28
REMARK SMILES IDX 32 29 31 30 33 32 41 33 43 34 42 35 44 37 49 38 50 39 51 40
REMARK SMILES IDX 45 42 46 43 47 44 48 45 34 48 35 49 36 50 37 51 38 52 40 53
REMARK SMILES IDX 39 57 22 59 23 60 24 61 29 62 25 63 28 64 26 65 27 66
REMARK H PARENT 20 4 6 9 11 15 15 18 15 19 17 22 32 31 43 36 51 41 47 46 47 47
REMARK H PARENT 37 54 40 55 40 56 39 58 27 67
ROOT
ATOM      1  C   LEU A   3     -18.383 -10.555  -4.864  1.00  0.00     0.243 C 
ATOM      2  O   LEU A   3     -18.753 -11.409  -5.713  1.00  0.00    -0.273 OA
ATOM      3  N   TYR A   4     -18.838 -10.604  -3.515  1.00  0.00    -0.342 N 
ATOM      4  H   UNL     1     -18.554  -9.834  -2.864  1.00  0.00     0.164 HD
ENDROOT
BRANCH   1   5
ATOM      5  CA  LEU A   3     -17.448  -9.460  -5.245  1.00  0.00     0.171 C 
BRANCH   5   6
ATOM      6  N   LEU A   3     -16.208 -10.025  -5.739  1.00  0.00    -0.343 N 
ATOM      7  C   ALA A   2     -15.248 -10.565  -4.840  1.00  0.00     0.242 C 
ATOM      8  O   ALA A   2     -15.468 -10.585  -3.596  1.00  0.00    -0.273 OA
ATOM      9  H   UNL     1     -16.016 -10.045  -6.767  1.00  0.00     0.164 HD
BRANCH   7  10
ATOM     10  CA  ALA A   2     -13.964 -11.087  -5.392  1.00  0.00     0.168 C 
ATOM     11  CB  ALA A   2     -13.926 -12.608  -5.286  1.00  0.00     0.041 C 
BRANCH  10  12
ATOM     12  N   ALA A   2     -12.850 -10.488  -4.674  1.00  0.00    -0.343 N 
ATOM     13  C   SER A   1     -12.604  -9.084  -4.714  1.00  0.00     0.239 C 
ATOM     14  O   SER A   1     -13.370  -8.317  -5.360  1.00  0.00    -0.273 OA
ATOM     15  H   UNL     1     -12.216 -11.094  -4.104  1.00  0.00     0.164 HD
BRANCH  13  16
ATOM     16  CA  SER A   1     -11.442  -8.536  -3.936  1.00  0.00     0.167 C 
BRANCH  16  17
ATOM     17  N   SER A   1     -10.849  -7.377  -4.606  1.00  0.00    -0.318 NA
ATOM     18  H   UNL     1     -10.477  -7.683  -5.535  1.00  0.00     0.119 HD
ATOM     19  H   UNL     1     -11.578  -6.649  -4.790  1.00  0.00     0.119 HD
ENDBRANCH  16  17
BRANCH  16  20
ATOM     20  CB  SER A   1     -11.843  -8.203  -2.486  1.00  0.00     0.184 C 
BRANCH  20  21
ATOM     21  OG  SER A   1     -12.057  -6.826  -2.328  1.00  0.00    -0.394 OA
ATOM     22  H   UNL     1     -12.317  -6.694  -1.379  1.00  0.00     0.210 HD
ENDBRANCH  20  21
ENDBRANCH  16  20
ENDBRANCH  13  16
ENDBRANCH  10  12
ENDBRANCH   7  10
ENDBRANCH   5   6
BRANCH   5  23
ATOM     23  CB  LEU A   3     -18.098  -8.528  -6.275  1.00  0.00     0.038 C 
BRANCH  23  24
ATOM     24  CG  LEU A   3     -17.543  -7.092  -6.222  1.00  0.00    -0.015 C 
ATOM     25  CD1 LEU A   3     -18.189  -6.264  -7.336  1.00  0.00     0.007 C 
ATOM     26  CD2 LEU A   3     -17.813  -6.425  -4.859  1.00  0.00     0.007 C 
ENDBRANCH  23  24
ENDBRANCH   5  23
ENDBRANCH   1   5
BRANCH   3  27
ATOM     27  CA  TYR A   4     -19.821 -11.559  -3.040  1.00  0.00     0.175 C 
BRANCH  27  28
ATOM     28  C   TYR A   4     -21.169 -11.064  -3.459  1.00  0.00     0.243 C 
ATOM     29  N   ARG A   5     -21.502 -11.143  -4.839  1.00  0.00    -0.343 N 
ATOM     30  O   TYR A   4     -21.969 -10.543  -2.635  1.00  0.00    -0.273 OA
ATOM     31  H   UNL     1     -21.064 -11.908  -5.399  1.00  0.00     0.164 HD
BRANCH  29  32
ATOM     32  CA  ARG A   5     -22.677 -10.498  -5.385  1.00  0.00     0.171 C 
BRANCH  32  33
ATOM     33  C   ARG A   5     -23.896 -11.195  -4.884  1.00  0.00     0.243 C 
ATOM     34  N   ASN A   6     -24.981 -10.403  -4.433  1.00  0.00    -0.341 N 
ATOM     35  O   ARG A   5     -23.965 -12.455  -4.867  1.00  0.00    -0.273 OA
ATOM     36  H   UNL     1     -24.930  -9.364  -4.552  1.00  0.00     0.164 HD
BRANCH  34  37
ATOM     37  CA  ASN A   6     -26.189 -10.994  -3.883  1.00  0.00     0.201 C 
BRANCH  37  38
ATOM     38  C   ASN A   6     -27.052 -11.522  -4.997  1.00  0.00     0.326 C 
ATOM     39  O   ASN A   6     -27.151 -10.892  -6.084  1.00  0.00    -0.250 OA
BRANCH  38  40
ATOM     40  OXT ASN A   6     -27.772 -12.698  -4.811  1.00  0.00    -0.480 OA
ATOM     41  H   UNL     1     -28.369 -13.063  -5.543  1.00  0.00     0.296 HD
ENDBRANCH  38  40
ENDBRANCH  37  38
BRANCH  37  42
ATOM     42  CB  ASN A   6     -26.929  -9.934  -3.062  1.00  0.00     0.136 C 
BRANCH  42  43
ATOM     43  CG  ASN A   6     -28.019 -10.549  -2.252  1.00  0.00     0.220 C 
ATOM     44  ND2 ASN A   6     -27.701 -11.242  -1.053  1.00  0.00    -0.370 N 
ATOM     45  OD1 ASN A   6     -29.213 -10.483  -2.642  1.00  0.00    -0.275 OA
ATOM     46  H   UNL     1     -28.456 -11.688  -0.487  1.00  0.00     0.159 HD
ATOM     47  H   UNL     1     -26.712 -11.315  -0.725  1.00  0.00     0.159 HD
ENDBRANCH  42  43
ENDBRANCH  37  42
ENDBRANCH  34  37
ENDBRANCH  32  33
BRANCH  32  48
ATOM     48  CB  ARG A   5     -22.647 -10.519  -6.914  1.00  0.00     0.037 C 
BRANCH  48  49
ATOM     49  CG  ARG A   5     -21.460  -9.719  -7.458  1.00  0.00     0.024 C 
BRANCH  49  50
ATOM     50  CD  ARG A   5     -21.602  -9.480  -8.962  1.00  0.00     0.116 C 
BRANCH  50  51
ATOM     51  NE  ARG A   5     -21.190  -8.117  -9.282  1.00  0.00    -0.357 N 
ATOM     52  CZ  ARG A   5     -20.075  -7.775 -10.104  1.00  0.00     0.185 C 
ATOM     53  NH2 ARG A   5     -19.200  -8.774 -10.616  1.00  0.00    -0.370 N 
ATOM     54  H   UNL     1     -21.774  -7.342  -8.893  1.00  0.00     0.163 HD
ATOM     55  H   UNL     1     -18.494  -8.517 -11.341  1.00  0.00     0.159 HD
ATOM     56  H   UNL     1     -19.097  -9.711 -10.171  1.00  0.00     0.159 HD
BRANCH  52  57
ATOM     57  NH1 ARG A   5     -19.847  -6.533 -10.392  1.00  0.00    -0.270 NA
ATOM     58  H   UNL     1     -20.457  -5.762 -10.039  1.00  0.00     0.191 HD
ENDBRANCH  52  57
ENDBRANCH  50  51
ENDBRANCH  49  50
ENDBRANCH  48  49
ENDBRANCH  32  48
ENDBRANCH  29  32
ENDBRANCH  27  28
BRANCH  27  59
ATOM     59  CB  TYR A   4     -19.670 -11.710  -1.515  1.00  0.00     0.070 C 
BRANCH  59  60
ATOM     60  CG  TYR A   4     -20.337 -12.950  -0.986  1.00  0.00    -0.045 A 
ATOM     61  CD1 TYR A   4     -19.721 -14.204  -1.138  1.00  0.00     0.007 A 
ATOM     62  CD2 TYR A   4     -21.601 -12.875  -0.377  1.00  0.00     0.007 A 
ATOM     63  CE1 TYR A   4     -20.355 -15.362  -0.678  1.00  0.00     0.046 A 
ATOM     64  CE2 TYR A   4     -22.233 -14.035   0.082  1.00  0.00     0.046 A 
ATOM     65  CZ  TYR A   4     -21.613 -15.280  -0.067  1.00  0.00     0.115 A 
BRANCH  65  66
ATOM     66  OH  TYR A   4     -22.255 -16.427   0.395  1.00  0.00    -0.508 OA
ATOM     67  H   UNL     1     -21.833 -17.343   0.302  1.00  0.00     0.293 HD
ENDBRANCH  65  66
ENDBRANCH  59  60
ENDBRANCH  27  59
ENDBRANCH   3  27
TORSDOF 27
