REMARK SMILES CC(C)C[C@H](NC(=O)[C@H](CC(N)=O)NC(=O)[C@H](Cc1ccccc1)NC(=O)[C@@H](N)CO)C(=O)N[C@@H](CCCNC(=N)N)C(=O)N[C@@H](CO)C(=O)O
REMARK SMILES IDX 7 1 8 2 6 3 9 5 14 6 15 7 16 8 17 10 25 11 26 12 27 13 28 15
REMARK SMILES IDX 29 16 30 19 31 20 18 22 19 23 20 24 24 25 21 26 23 27 22 28
REMARK SMILES IDX 10 29 11 30 12 31 13 32 5 35 32 36 34 37 33 38 35 40 43 41
REMARK SMILES IDX 45 42 44 43 46 45 49 46 50 47 51 48 47 50 48 51 36 53 37 54
REMARK SMILES IDX 38 55 39 56 40 57 42 58 41 62 4 64 2 65 1 66 3 67
REMARK H PARENT 6 4 14 9 25 14 29 17 29 18 31 21 12 33 12 34 34 39 45 44 51 49
REMARK H PARENT 48 52 39 59 42 60 42 61 41 63
ROOT
ATOM      1  C   ASN A   3     -18.388 -10.524  -4.871  1.00  0.00     0.243 C 
ATOM      2  O   ASN A   3     -18.746 -11.390  -5.716  1.00  0.00    -0.273 OA
ATOM      3  N   LEU A   4     -18.845 -10.572  -3.525  1.00  0.00    -0.342 N 
ATOM      4  H   UNL     1     -18.583  -9.790  -2.882  1.00  0.00     0.164 HD
ENDROOT
BRANCH   1   5
ATOM      5  CA  ASN A   3     -17.459  -9.423  -5.250  1.00  0.00     0.180 C 
BRANCH   5   6
ATOM      6  N   ASN A   3     -16.215  -9.995  -5.728  1.00  0.00    -0.342 N 
ATOM      7  C   PHE A   2     -15.259 -10.542  -4.826  1.00  0.00     0.243 C 
ATOM      8  O   PHE A   2     -15.482 -10.575  -3.585  1.00  0.00    -0.273 OA
ATOM      9  H   UNL     1     -16.026 -10.024  -6.756  1.00  0.00     0.164 HD
BRANCH   7  10
ATOM     10  CA  PHE A   2     -13.980 -11.061  -5.384  1.00  0.00     0.175 C 
BRANCH  10  11
ATOM     11  N   PHE A   2     -12.859 -10.484  -4.661  1.00  0.00    -0.343 N 
ATOM     12  C   SER A   1     -12.602  -9.082  -4.707  1.00  0.00     0.239 C 
ATOM     13  O   SER A   1     -13.365  -8.312  -5.356  1.00  0.00    -0.273 OA
ATOM     14  H   UNL     1     -12.223 -11.101  -4.106  1.00  0.00     0.164 HD
BRANCH  12  15
ATOM     15  CA  SER A   1     -11.437  -8.538  -3.934  1.00  0.00     0.167 C 
BRANCH  15  16
ATOM     16  N   SER A   1     -10.842  -7.381  -4.606  1.00  0.00    -0.318 NA
ATOM     17  H   UNL     1     -11.569  -6.653  -4.797  1.00  0.00     0.119 HD
ATOM     18  H   UNL     1     -10.468  -7.690  -5.533  1.00  0.00     0.119 HD
ENDBRANCH  15  16
BRANCH  15  19
ATOM     19  CB  SER A   1     -11.837  -8.200  -2.486  1.00  0.00     0.184 C 
BRANCH  19  20
ATOM     20  OG  SER A   1     -12.063  -6.826  -2.322  1.00  0.00    -0.394 OA
ATOM     21  H   UNL     1     -12.976  -6.649  -2.668  1.00  0.00     0.210 HD
ENDBRANCH  19  20
ENDBRANCH  15  19
ENDBRANCH  12  15
ENDBRANCH  10  11
BRANCH  10  22
ATOM     22  CB  PHE A   2     -13.967 -12.596  -5.326  1.00  0.00     0.070 C 
BRANCH  22  23
ATOM     23  CG  PHE A   2     -12.884 -13.199  -6.183  1.00  0.00    -0.045 A 
ATOM     24  CD1 PHE A   2     -12.723 -12.807  -7.526  1.00  0.00     0.004 A 
ATOM     25  CD2 PHE A   2     -12.092 -14.243  -5.682  1.00  0.00     0.004 A 
ATOM     26  CE1 PHE A   2     -11.747 -13.399  -8.324  1.00  0.00     0.000 A 
ATOM     27  CE2 PHE A   2     -11.134 -14.853  -6.495  1.00  0.00     0.000 A 
ATOM     28  CZ  PHE A   2     -10.955 -14.424  -7.811  1.00  0.00     0.000 A 
ENDBRANCH  22  23
ENDBRANCH  10  22
ENDBRANCH   7  10
ENDBRANCH   5   6
BRANCH   5  29
ATOM     29  CB  ASN A   3     -18.100  -8.507  -6.300  1.00  0.00     0.134 C 
BRANCH  29  30
ATOM     30  CG  ASN A   3     -17.501  -7.131  -6.261  1.00  0.00     0.220 C 
ATOM     31  ND2 ASN A   3     -17.961  -6.167  -5.314  1.00  0.00    -0.370 N 
ATOM     32  OD1 ASN A   3     -16.559  -6.837  -7.044  1.00  0.00    -0.275 OA
ATOM     33  H   UNL     1     -18.724  -6.404  -4.641  1.00  0.00     0.159 HD
ATOM     34  H   UNL     1     -17.534  -5.215  -5.280  1.00  0.00     0.159 HD
ENDBRANCH  29  30
ENDBRANCH   5  29
ENDBRANCH   1   5
BRANCH   3  35
ATOM     35  CA  LEU A   4     -19.815 -11.541  -3.055  1.00  0.00     0.171 C 
BRANCH  35  36
ATOM     36  C   LEU A   4     -21.170 -11.059  -3.463  1.00  0.00     0.243 C 
ATOM     37  N   ARG A   5     -21.507 -11.139  -4.842  1.00  0.00    -0.343 N 
ATOM     38  O   LEU A   4     -21.972 -10.549  -2.633  1.00  0.00    -0.273 OA
ATOM     39  H   UNL     1     -21.061 -11.896  -5.406  1.00  0.00     0.164 HD
BRANCH  37  40
ATOM     40  CA  ARG A   5     -22.683 -10.496  -5.385  1.00  0.00     0.171 C 
BRANCH  40  41
ATOM     41  C   ARG A   5     -23.901 -11.194  -4.882  1.00  0.00     0.243 C 
ATOM     42  N   SER A   6     -24.985 -10.404  -4.416  1.00  0.00    -0.339 N 
ATOM     43  O   ARG A   5     -23.969 -12.454  -4.869  1.00  0.00    -0.273 OA
ATOM     44  H   UNL     1     -24.927  -9.364  -4.510  1.00  0.00     0.164 HD
BRANCH  42  45
ATOM     45  CA  SER A   6     -26.195 -11.002  -3.874  1.00  0.00     0.218 C 
BRANCH  45  46
ATOM     46  C   SER A   6     -27.062 -11.517  -4.990  1.00  0.00     0.328 C 
ATOM     47  O   SER A   6     -27.145 -10.889  -6.080  1.00  0.00    -0.250 OA
BRANCH  46  48
ATOM     48  OXT SER A   6     -27.808 -12.676  -4.801  1.00  0.00    -0.480 OA
ATOM     49  H   UNL     1     -28.409 -13.032  -5.535  1.00  0.00     0.296 HD
ENDBRANCH  46  48
ENDBRANCH  45  46
BRANCH  45  50
ATOM     50  CB  SER A   6     -26.950  -9.970  -3.036  1.00  0.00     0.193 C 
BRANCH  50  51
ATOM     51  OG  SER A   6     -26.148  -9.546  -1.967  1.00  0.00    -0.394 OA
ATOM     52  H   UNL     1     -26.685  -8.876  -1.469  1.00  0.00     0.210 HD
ENDBRANCH  50  51
ENDBRANCH  45  50
ENDBRANCH  42  45
ENDBRANCH  40  41
BRANCH  40  53
ATOM     53  CB  ARG A   5     -22.652 -10.517  -6.914  1.00  0.00     0.037 C 
BRANCH  53  54
ATOM     54  CG  ARG A   5     -21.463  -9.719  -7.458  1.00  0.00     0.024 C 
BRANCH  54  55
ATOM     55  CD  ARG A   5     -21.602  -9.481  -8.962  1.00  0.00     0.116 C 
BRANCH  55  56
ATOM     56  NE  ARG A   5     -21.190  -8.118  -9.283  1.00  0.00    -0.357 N 
ATOM     57  CZ  ARG A   5     -20.072  -7.775 -10.101  1.00  0.00     0.185 C 
ATOM     58  NH2 ARG A   5     -19.200  -8.775 -10.617  1.00  0.00    -0.370 N 
ATOM     59  H   UNL     1     -21.778  -7.343  -8.897  1.00  0.00     0.163 HD
ATOM     60  H   UNL     1     -18.493  -8.517 -11.341  1.00  0.00     0.159 HD
ATOM     61  H   UNL     1     -19.100  -9.714 -10.177  1.00  0.00     0.159 HD
BRANCH  57  62
ATOM     62  NH1 ARG A   5     -19.842  -6.533 -10.384  1.00  0.00    -0.270 NA
ATOM     63  H   UNL     1     -20.452  -5.762 -10.031  1.00  0.00     0.191 HD
ENDBRANCH  57  62
ENDBRANCH  55  56
ENDBRANCH  54  55
ENDBRANCH  53  54
ENDBRANCH  40  53
ENDBRANCH  37  40
ENDBRANCH  35  36
BRANCH  35  64
ATOM     64  CB  LEU A   4     -19.651 -11.691  -1.535  1.00  0.00     0.038 C 
BRANCH  64  65
ATOM     65  CG  LEU A   4     -20.295 -12.955  -0.947  1.00  0.00    -0.015 C 
ATOM     66  CD1 LEU A   4     -19.611 -14.232  -1.462  1.00  0.00     0.007 C 
ATOM     67  CD2 LEU A   4     -20.194 -12.898   0.582  1.00  0.00     0.007 C 
ENDBRANCH  64  65
ENDBRANCH  35  64
ENDBRANCH   3  35
TORSDOF 28
