REMARK SMILES CC[C@H](C)[C@H](NC(=O)[C@H](Cc1c[nH]cn1)NC(=O)[C@@H](N)CO)C(=O)N[C@@H](CC(C)C)C(=O)N[C@@H](CCCNC(=N)N)C(=O)N[C@@H](CC(N)=O)C(=O)O
REMARK SMILES IDX 23 1 24 2 25 3 5 5 6 6 7 7 8 8 9 10 16 11 17 12 18 13 19 15
REMARK SMILES IDX 20 16 21 19 22 20 10 22 11 23 15 24 12 25 14 26 13 27 3 29
REMARK SMILES IDX 4 30 2 31 1 32 26 33 31 34 33 35 32 36 34 38 42 39 44 40
REMARK SMILES IDX 43 41 45 43 50 44 51 45 52 46 46 48 47 49 48 50 49 51 35 54
REMARK SMILES IDX 36 55 37 56 38 57 39 58 41 59 40 63 27 65 28 66 29 67 30 68
REMARK H PARENT 25 4 6 9 16 14 20 17 20 18 22 21 13 28 33 37 44 42 52 47 48 52
REMARK H PARENT 48 53 38 60 41 61 41 62 40 64
ROOT
ATOM      1  C   ILE A   3     -18.354 -10.561  -4.843  1.00  0.00     0.243 C 
ATOM      2  O   ILE A   3     -18.725 -11.405  -5.705  1.00  0.00    -0.273 OA
ATOM      3  N   LEU A   4     -18.842 -10.596  -3.510  1.00  0.00    -0.343 N 
ATOM      4  H   UNL     1     -18.604  -9.800  -2.873  1.00  0.00     0.164 HD
ENDROOT
BRANCH   1   5
ATOM      5  CA  ILE A   3     -17.459  -9.428  -5.207  1.00  0.00     0.174 C 
BRANCH   5   6
ATOM      6  N   ILE A   3     -16.219  -9.965  -5.742  1.00  0.00    -0.342 N 
ATOM      7  C   HIS A   2     -15.258 -10.544  -4.854  1.00  0.00     0.243 C 
ATOM      8  O   HIS A   2     -15.472 -10.585  -3.609  1.00  0.00    -0.273 OA
ATOM      9  H   UNL     1     -16.045  -9.945  -6.772  1.00  0.00     0.164 HD
BRANCH   7  10
ATOM     10  CA  HIS A   2     -13.977 -11.077  -5.411  1.00  0.00     0.177 C 
BRANCH  10  11
ATOM     11  N   HIS A   2     -12.857 -10.486  -4.689  1.00  0.00    -0.342 N 
ATOM     12  C   SER A   1     -12.607  -9.082  -4.718  1.00  0.00     0.239 C 
ATOM     13  O   SER A   1     -13.371  -8.311  -5.361  1.00  0.00    -0.273 OA
ATOM     14  H   UNL     1     -12.225 -11.097  -4.122  1.00  0.00     0.164 HD
BRANCH  12  15
ATOM     15  CA  SER A   1     -11.444  -8.539  -3.937  1.00  0.00     0.167 C 
BRANCH  15  16
ATOM     16  N   SER A   1     -10.847  -7.381  -4.605  1.00  0.00    -0.318 NA
ATOM     17  H   UNL     1     -10.475  -7.687  -5.534  1.00  0.00     0.119 HD
ATOM     18  H   UNL     1     -11.574  -6.651  -4.790  1.00  0.00     0.119 HD
ENDBRANCH  15  16
BRANCH  15  19
ATOM     19  CB  SER A   1     -11.845  -8.206  -2.488  1.00  0.00     0.184 C 
BRANCH  19  20
ATOM     20  OG  SER A   1     -12.057  -6.828  -2.329  1.00  0.00    -0.394 OA
ATOM     21  H   UNL     1     -12.317  -6.696  -1.380  1.00  0.00     0.210 HD
ENDBRANCH  19  20
ENDBRANCH  15  19
ENDBRANCH  12  15
ENDBRANCH  10  11
BRANCH  10  22
ATOM     22  CB  HIS A   2     -13.958 -12.609  -5.310  1.00  0.00     0.093 C 
BRANCH  22  23
ATOM     23  CG  HIS A   2     -12.871 -13.197  -6.158  1.00  0.00     0.061 A 
ATOM     24  ND1 HIS A   2     -11.636 -13.489  -5.704  1.00  0.00    -0.242 NA
ATOM     25  CD2 HIS A   2     -12.945 -13.444  -7.511  1.00  0.00     0.107 A 
ATOM     26  CE1 HIS A   2     -10.984 -13.928  -6.802  1.00  0.00     0.196 A 
ATOM     27  NE2 HIS A   2     -11.752 -13.910  -7.908  1.00  0.00    -0.351 N 
ATOM     28  H   UNL     1     -11.474 -14.191  -8.875  1.00  0.00     0.167 HD
ENDBRANCH  22  23
ENDBRANCH  10  22
ENDBRANCH   7  10
ENDBRANCH   5   6
BRANCH   5  29
ATOM     29  CB  ILE A   3     -18.199  -8.437  -6.134  1.00  0.00     0.018 C 
ATOM     30  CG1 ILE A   3     -19.525  -8.005  -5.440  1.00  0.00     0.010 C 
BRANCH  29  31
ATOM     31  CG2 ILE A   3     -17.395  -7.146  -6.343  1.00  0.00     0.002 C 
ATOM     32  CD1 ILE A   3     -18.088  -6.202  -7.329  1.00  0.00     0.004 C 
ENDBRANCH  29  31
ENDBRANCH   5  29
ENDBRANCH   1   5
BRANCH   3  33
ATOM     33  CA  LEU A   4     -19.821 -11.553  -3.050  1.00  0.00     0.171 C 
BRANCH  33  34
ATOM     34  C   LEU A   4     -21.171 -11.062  -3.464  1.00  0.00     0.243 C 
ATOM     35  N   ARG A   5     -21.506 -11.146  -4.844  1.00  0.00    -0.343 N 
ATOM     36  O   LEU A   4     -21.973 -10.548  -2.637  1.00  0.00    -0.273 OA
ATOM     37  H   UNL     1     -21.044 -11.890  -5.411  1.00  0.00     0.164 HD
BRANCH  35  38
ATOM     38  CA  ARG A   5     -22.683 -10.508  -5.395  1.00  0.00     0.171 C 
BRANCH  38  39
ATOM     39  C   ARG A   5     -23.899 -11.200  -4.886  1.00  0.00     0.243 C 
ATOM     40  N   ASN A   6     -24.981 -10.405  -4.432  1.00  0.00    -0.341 N 
ATOM     41  O   ARG A   5     -23.969 -12.460  -4.865  1.00  0.00    -0.273 OA
ATOM     42  H   UNL     1     -24.928  -9.366  -4.551  1.00  0.00     0.164 HD
BRANCH  40  43
ATOM     43  CA  ASN A   6     -26.190 -10.995  -3.883  1.00  0.00     0.201 C 
BRANCH  43  44
ATOM     44  C   ASN A   6     -27.053 -11.522  -4.997  1.00  0.00     0.326 C 
ATOM     45  O   ASN A   6     -27.151 -10.892  -6.084  1.00  0.00    -0.250 OA
BRANCH  44  46
ATOM     46  OXT ASN A   6     -27.774 -12.697  -4.811  1.00  0.00    -0.480 OA
ATOM     47  H   UNL     1     -28.371 -13.062  -5.544  1.00  0.00     0.296 HD
ENDBRANCH  44  46
ENDBRANCH  43  44
BRANCH  43  48
ATOM     48  CB  ASN A   6     -26.929  -9.934  -3.062  1.00  0.00     0.136 C 
BRANCH  48  49
ATOM     49  CG  ASN A   6     -28.019 -10.549  -2.252  1.00  0.00     0.220 C 
ATOM     50  ND2 ASN A   6     -27.701 -11.241  -1.053  1.00  0.00    -0.370 N 
ATOM     51  OD1 ASN A   6     -29.213 -10.483  -2.643  1.00  0.00    -0.275 OA
ATOM     52  H   UNL     1     -26.713 -11.314  -0.724  1.00  0.00     0.159 HD
ATOM     53  H   UNL     1     -28.456 -11.688  -0.487  1.00  0.00     0.159 HD
ENDBRANCH  48  49
ENDBRANCH  43  48
ENDBRANCH  40  43
ENDBRANCH  38  39
BRANCH  38  54
ATOM     54  CB  ARG A   5     -22.654 -10.550  -6.927  1.00  0.00     0.037 C 
BRANCH  54  55
ATOM     55  CG  ARG A   5     -21.506  -9.703  -7.472  1.00  0.00     0.024 C 
BRANCH  55  56
ATOM     56  CD  ARG A   5     -21.611  -9.492  -8.978  1.00  0.00     0.116 C 
BRANCH  56  57
ATOM     57  NE  ARG A   5     -21.201  -8.127  -9.303  1.00  0.00    -0.357 N 
ATOM     58  CZ  ARG A   5     -20.082  -7.781 -10.117  1.00  0.00     0.185 C 
ATOM     59  NH2 ARG A   5     -19.197  -8.776 -10.618  1.00  0.00    -0.370 N 
ATOM     60  H   UNL     1     -21.801  -7.353  -8.935  1.00  0.00     0.163 HD
ATOM     61  H   UNL     1     -19.096  -9.713 -10.174  1.00  0.00     0.159 HD
ATOM     62  H   UNL     1     -18.485  -8.517 -11.337  1.00  0.00     0.159 HD
BRANCH  58  63
ATOM     63  NH1 ARG A   5     -19.857  -6.538 -10.404  1.00  0.00    -0.270 NA
ATOM     64  H   UNL     1     -20.474  -5.769 -10.058  1.00  0.00     0.191 HD
ENDBRANCH  58  63
ENDBRANCH  56  57
ENDBRANCH  55  56
ENDBRANCH  54  55
ENDBRANCH  38  54
ENDBRANCH  35  38
ENDBRANCH  33  34
BRANCH  33  65
ATOM     65  CB  LEU A   4     -19.661 -11.697  -1.530  1.00  0.00     0.038 C 
BRANCH  65  66
ATOM     66  CG  LEU A   4     -20.300 -12.962  -0.942  1.00  0.00    -0.015 C 
ATOM     67  CD1 LEU A   4     -19.611 -14.236  -1.458  1.00  0.00     0.007 C 
ATOM     68  CD2 LEU A   4     -20.196 -12.902   0.586  1.00  0.00     0.007 C 
ENDBRANCH  65  66
ENDBRANCH  33  65
ENDBRANCH   3  33
TORSDOF 28
