REMARK SMILES CC(C)C[C@H](NC(=O)CNC(=O)[C@H](Cc1ccccc1)NC(=O)[C@@H](N)CO)C(=O)N[C@@H](Cc1c[nH]cn1)C(=O)N[C@@H](CC(N)=O)C(=O)O
REMARK SMILES IDX 7 1 8 2 6 3 9 5 10 6 11 7 12 8 13 10 21 11 22 12 23 13 24 15
REMARK SMILES IDX 25 16 26 19 27 20 14 22 15 23 16 24 20 25 17 26 19 27 18 28
REMARK SMILES IDX 5 29 28 30 30 31 29 32 31 34 38 35 40 36 39 37 41 39 46 40
REMARK SMILES IDX 47 41 48 42 42 44 43 45 44 46 45 47 32 50 33 51 37 52 34 53
REMARK SMILES IDX 36 54 35 55 4 57 2 58 1 59 3 60
REMARK H PARENT 6 4 10 9 21 14 25 17 25 18 27 21 30 33 40 38 48 43 44 48 44 49
REMARK H PARENT 35 56
ROOT
ATOM      1  C   GLY A   3     -18.395 -10.522  -4.884  1.00  0.00     0.240 C 
ATOM      2  O   GLY A   3     -18.760 -11.391  -5.720  1.00  0.00    -0.273 OA
ATOM      3  N   LEU A   4     -18.835 -10.568  -3.532  1.00  0.00    -0.343 N 
ATOM      4  H   UNL     1     -18.539  -9.799  -2.887  1.00  0.00     0.164 HD
ENDROOT
BRANCH   1   5
ATOM      5  CA  GLY A   3     -17.476  -9.432  -5.296  1.00  0.00     0.216 C 
BRANCH   5   6
ATOM      6  N   GLY A   3     -16.220  -9.999  -5.735  1.00  0.00    -0.345 N 
ATOM      7  C   PHE A   2     -15.266 -10.539  -4.826  1.00  0.00     0.243 C 
ATOM      8  O   PHE A   2     -15.493 -10.568  -3.586  1.00  0.00    -0.273 OA
ATOM      9  H   UNL     1     -16.017  -9.993  -6.760  1.00  0.00     0.164 HD
BRANCH   7  10
ATOM     10  CA  PHE A   2     -13.983 -11.060  -5.381  1.00  0.00     0.175 C 
BRANCH  10  11
ATOM     11  N   PHE A   2     -12.862 -10.483  -4.659  1.00  0.00    -0.343 N 
ATOM     12  C   SER A   1     -12.602  -9.082  -4.709  1.00  0.00     0.239 C 
ATOM     13  O   SER A   1     -13.364  -8.313  -5.358  1.00  0.00    -0.273 OA
ATOM     14  H   UNL     1     -12.228 -11.101  -4.102  1.00  0.00     0.164 HD
BRANCH  12  15
ATOM     15  CA  SER A   1     -11.438  -8.538  -3.934  1.00  0.00     0.167 C 
BRANCH  15  16
ATOM     16  N   SER A   1     -10.845  -7.381  -4.608  1.00  0.00    -0.318 NA
ATOM     17  H   UNL     1     -10.477  -7.690  -5.538  1.00  0.00     0.119 HD
ATOM     18  H   UNL     1     -11.572  -6.651  -4.790  1.00  0.00     0.119 HD
ENDBRANCH  15  16
BRANCH  15  19
ATOM     19  CB  SER A   1     -11.843  -8.201  -2.485  1.00  0.00     0.184 C 
BRANCH  19  20
ATOM     20  OG  SER A   1     -12.055  -6.823  -2.318  1.00  0.00    -0.394 OA
ATOM     21  H   UNL     1     -11.173  -6.416  -2.110  1.00  0.00     0.210 HD
ENDBRANCH  19  20
ENDBRANCH  15  19
ENDBRANCH  12  15
ENDBRANCH  10  11
BRANCH  10  22
ATOM     22  CB  PHE A   2     -13.969 -12.596  -5.325  1.00  0.00     0.070 C 
BRANCH  22  23
ATOM     23  CG  PHE A   2     -12.884 -13.198  -6.183  1.00  0.00    -0.045 A 
ATOM     24  CD1 PHE A   2     -12.723 -12.806  -7.525  1.00  0.00     0.004 A 
ATOM     25  CD2 PHE A   2     -12.093 -14.243  -5.682  1.00  0.00     0.004 A 
ATOM     26  CE1 PHE A   2     -11.748 -13.398  -8.323  1.00  0.00     0.000 A 
ATOM     27  CE2 PHE A   2     -11.134 -14.853  -6.495  1.00  0.00     0.000 A 
ATOM     28  CZ  PHE A   2     -10.955 -14.424  -7.811  1.00  0.00     0.000 A 
ENDBRANCH  22  23
ENDBRANCH  10  22
ENDBRANCH   7  10
ENDBRANCH   5   6
ENDBRANCH   1   5
BRANCH   3  29
ATOM     29  CA  LEU A   4     -19.811 -11.534  -3.058  1.00  0.00     0.171 C 
BRANCH  29  30
ATOM     30  C   LEU A   4     -21.167 -11.053  -3.469  1.00  0.00     0.243 C 
ATOM     31  N   HIS A   5     -21.503 -11.131  -4.850  1.00  0.00    -0.342 N 
ATOM     32  O   LEU A   4     -21.971 -10.549  -2.638  1.00  0.00    -0.273 OA
ATOM     33  H   UNL     1     -21.064 -11.892  -5.413  1.00  0.00     0.164 HD
BRANCH  31  34
ATOM     34  CA  HIS A   5     -22.676 -10.483  -5.398  1.00  0.00     0.177 C 
BRANCH  34  35
ATOM     35  C   HIS A   5     -23.896 -11.186  -4.898  1.00  0.00     0.243 C 
ATOM     36  N   ASN A   6     -24.981 -10.397  -4.437  1.00  0.00    -0.340 N 
ATOM     37  O   HIS A   5     -23.961 -12.447  -4.876  1.00  0.00    -0.273 OA
ATOM     38  H   UNL     1     -24.930  -9.358  -4.550  1.00  0.00     0.164 HD
BRANCH  36  39
ATOM     39  CA  ASN A   6     -26.186 -10.993  -3.885  1.00  0.00     0.201 C 
BRANCH  39  40
ATOM     40  C   ASN A   6     -27.051 -11.522  -4.997  1.00  0.00     0.326 C 
ATOM     41  O   ASN A   6     -27.152 -10.892  -6.084  1.00  0.00    -0.250 OA
BRANCH  40  42
ATOM     42  OXT ASN A   6     -27.770 -12.698  -4.809  1.00  0.00    -0.480 OA
ATOM     43  H   UNL     1     -28.367 -13.064  -5.540  1.00  0.00     0.296 HD
ENDBRANCH  40  42
ENDBRANCH  39  40
BRANCH  39  44
ATOM     44  CB  ASN A   6     -26.928  -9.934  -3.062  1.00  0.00     0.136 C 
BRANCH  44  45
ATOM     45  CG  ASN A   6     -28.018 -10.550  -2.253  1.00  0.00     0.220 C 
ATOM     46  ND2 ASN A   6     -27.700 -11.242  -1.054  1.00  0.00    -0.370 N 
ATOM     47  OD1 ASN A   6     -29.212 -10.484  -2.643  1.00  0.00    -0.275 OA
ATOM     48  H   UNL     1     -26.712 -11.315  -0.725  1.00  0.00     0.159 HD
ATOM     49  H   UNL     1     -28.455 -11.688  -0.488  1.00  0.00     0.159 HD
ENDBRANCH  44  45
ENDBRANCH  39  44
ENDBRANCH  36  39
ENDBRANCH  34  35
BRANCH  34  50
ATOM     50  CB  HIS A   5     -22.636 -10.492  -6.932  1.00  0.00     0.093 C 
BRANCH  50  51
ATOM     51  CG  HIS A   5     -21.441  -9.747  -7.457  1.00  0.00     0.061 A 
ATOM     52  ND1 HIS A   5     -20.437 -10.327  -8.145  1.00  0.00    -0.242 NA
ATOM     53  CD2 HIS A   5     -21.209  -8.395  -7.340  1.00  0.00     0.107 A 
ATOM     54  CE1 HIS A   5     -19.607  -9.302  -8.432  1.00  0.00     0.196 A 
ATOM     55  NE2 HIS A   5     -20.050  -8.122  -7.956  1.00  0.00    -0.351 N 
ATOM     56  H   UNL     1     -19.587  -7.191  -8.047  1.00  0.00     0.167 HD
ENDBRANCH  50  51
ENDBRANCH  34  50
ENDBRANCH  31  34
ENDBRANCH  29  30
BRANCH  29  57
ATOM     57  CB  LEU A   4     -19.649 -11.686  -1.537  1.00  0.00     0.038 C 
BRANCH  57  58
ATOM     58  CG  LEU A   4     -20.294 -12.952  -0.949  1.00  0.00    -0.015 C 
ATOM     59  CD1 LEU A   4     -19.610 -14.229  -1.464  1.00  0.00     0.007 C 
ATOM     60  CD2 LEU A   4     -20.194 -12.895   0.580  1.00  0.00     0.007 C 
ENDBRANCH  57  58
ENDBRANCH  29  57
ENDBRANCH   3  29
TORSDOF 23
