REMARK SMILES CC(C)C[C@H](NC(=O)[C@H](CCCNC(=N)N)NC(=O)[C@H](Cc1ccccc1)NC(=O)[C@@H](N)CO)C(=O)N[C@@H](CCCNC(=N)N)C(=O)N[C@@H](CCCCN)C(=O)O
REMARK SMILES IDX 35 1 36 2 37 3 5 5 6 6 7 7 8 8 9 10 17 11 18 12 19 13 20 15
REMARK SMILES IDX 28 16 29 17 30 18 31 20 32 21 33 24 34 25 21 27 22 28 23 29
REMARK SMILES IDX 27 30 24 31 26 32 25 33 10 34 11 35 12 36 13 37 14 38 16 39
REMARK SMILES IDX 15 43 4 45 2 46 1 47 3 48 38 49 46 50 48 51 47 52 49 54
REMARK SMILES IDX 55 55 56 56 57 57 50 59 51 60 52 61 53 62 54 63 39 66 40 67
REMARK SMILES IDX 41 68 42 69 43 70 45 71 44 75
REMARK H PARENT 37 4 6 9 17 14 28 19 32 22 32 23 34 26 13 40 16 41 16 42 15 44
REMARK H PARENT 48 53 57 58 54 64 54 65 42 72 45 73 45 74 44 76
ROOT
ATOM      1  C   LEU A   4     -21.170 -11.060  -3.463  1.00  0.00     0.243 C 
ATOM      2  O   LEU A   4     -21.972 -10.549  -2.634  1.00  0.00    -0.273 OA
ATOM      3  N   ARG A   5     -21.505 -11.139  -4.842  1.00  0.00    -0.343 N 
ATOM      4  H   UNL     1     -21.059 -11.897  -5.406  1.00  0.00     0.164 HD
ENDROOT
BRANCH   1   5
ATOM      5  CA  LEU A   4     -19.816 -11.543  -3.054  1.00  0.00     0.171 C 
BRANCH   5   6
ATOM      6  N   LEU A   4     -18.845 -10.576  -3.523  1.00  0.00    -0.343 N 
ATOM      7  C   ARG A   3     -18.384 -10.533  -4.866  1.00  0.00     0.243 C 
ATOM      8  O   ARG A   3     -18.744 -11.396  -5.713  1.00  0.00    -0.273 OA
ATOM      9  H   UNL     1     -18.586  -9.791  -2.881  1.00  0.00     0.164 HD
BRANCH   7  10
ATOM     10  CA  ARG A   3     -17.457  -9.432  -5.246  1.00  0.00     0.171 C 
BRANCH  10  11
ATOM     11  N   ARG A   3     -16.214 -10.000  -5.727  1.00  0.00    -0.343 N 
ATOM     12  C   PHE A   2     -15.256 -10.542  -4.825  1.00  0.00     0.243 C 
ATOM     13  O   PHE A   2     -15.479 -10.576  -3.583  1.00  0.00    -0.273 OA
ATOM     14  H   UNL     1     -16.024 -10.027  -6.755  1.00  0.00     0.164 HD
BRANCH  12  15
ATOM     15  CA  PHE A   2     -13.977 -11.060  -5.383  1.00  0.00     0.175 C 
BRANCH  15  16
ATOM     16  N   PHE A   2     -12.856 -10.483  -4.661  1.00  0.00    -0.343 N 
ATOM     17  C   SER A   1     -12.598  -9.080  -4.706  1.00  0.00     0.239 C 
ATOM     18  O   SER A   1     -13.360  -8.310  -5.356  1.00  0.00    -0.273 OA
ATOM     19  H   UNL     1     -12.222 -11.100  -4.104  1.00  0.00     0.164 HD
BRANCH  17  20
ATOM     20  CA  SER A   1     -11.438  -8.536  -3.930  1.00  0.00     0.167 C 
BRANCH  20  21
ATOM     21  N   SER A   1     -10.850  -7.388  -4.623  1.00  0.00    -0.318 NA
ATOM     22  H   UNL     1     -11.542  -6.606  -4.694  1.00  0.00     0.119 HD
ATOM     23  H   UNL     1     -10.030  -7.043  -4.072  1.00  0.00     0.119 HD
ENDBRANCH  20  21
BRANCH  20  24
ATOM     24  CB  SER A   1     -11.842  -8.203  -2.479  1.00  0.00     0.184 C 
BRANCH  24  25
ATOM     25  OG  SER A   1     -12.063  -6.828  -2.319  1.00  0.00    -0.394 OA
ATOM     26  H   UNL     1     -12.319  -6.698  -1.369  1.00  0.00     0.210 HD
ENDBRANCH  24  25
ENDBRANCH  20  24
ENDBRANCH  17  20
ENDBRANCH  15  16
BRANCH  15  27
ATOM     27  CB  PHE A   2     -13.965 -12.595  -5.326  1.00  0.00     0.070 C 
BRANCH  27  28
ATOM     28  CG  PHE A   2     -12.883 -13.199  -6.183  1.00  0.00    -0.045 A 
ATOM     29  CD1 PHE A   2     -12.723 -12.807  -7.526  1.00  0.00     0.004 A 
ATOM     30  CD2 PHE A   2     -12.091 -14.244  -5.682  1.00  0.00     0.004 A 
ATOM     31  CE1 PHE A   2     -11.747 -13.399  -8.324  1.00  0.00     0.000 A 
ATOM     32  CE2 PHE A   2     -11.133 -14.853  -6.495  1.00  0.00     0.000 A 
ATOM     33  CZ  PHE A   2     -10.955 -14.424  -7.811  1.00  0.00     0.000 A 
ENDBRANCH  27  28
ENDBRANCH  15  27
ENDBRANCH  12  15
ENDBRANCH  10  11
BRANCH  10  34
ATOM     34  CB  ARG A   3     -18.106  -8.526  -6.294  1.00  0.00     0.037 C 
BRANCH  34  35
ATOM     35  CG  ARG A   3     -17.520  -7.113  -6.262  1.00  0.00     0.024 C 
BRANCH  35  36
ATOM     36  CD  ARG A   3     -18.194  -6.243  -7.323  1.00  0.00     0.116 C 
BRANCH  36  37
ATOM     37  NE  ARG A   3     -17.703  -4.867  -7.247  1.00  0.00    -0.357 N 
ATOM     38  CZ  ARG A   3     -18.075  -3.917  -6.230  1.00  0.00     0.185 C 
ATOM     39  NH2 ARG A   3     -17.444  -2.636  -6.208  1.00  0.00    -0.370 N 
ATOM     40  H   UNL     1     -17.052  -4.547  -8.000  1.00  0.00     0.163 HD
ATOM     41  H   UNL     1     -16.714  -2.391  -6.912  1.00  0.00     0.159 HD
ATOM     42  H   UNL     1     -17.703  -1.930  -5.483  1.00  0.00     0.159 HD
BRANCH  38  43
ATOM     43  NH1 ARG A   3     -18.980  -4.188  -5.340  1.00  0.00    -0.270 NA
ATOM     44  H   UNL     1     -19.495  -5.092  -5.292  1.00  0.00     0.191 HD
ENDBRANCH  38  43
ENDBRANCH  36  37
ENDBRANCH  35  36
ENDBRANCH  34  35
ENDBRANCH  10  34
ENDBRANCH   7  10
ENDBRANCH   5   6
BRANCH   5  45
ATOM     45  CB  LEU A   4     -19.653 -11.691  -1.534  1.00  0.00     0.038 C 
BRANCH  45  46
ATOM     46  CG  LEU A   4     -20.296 -12.956  -0.946  1.00  0.00    -0.015 C 
ATOM     47  CD1 LEU A   4     -19.611 -14.232  -1.462  1.00  0.00     0.007 C 
ATOM     48  CD2 LEU A   4     -20.195 -12.898   0.583  1.00  0.00     0.007 C 
ENDBRANCH  45  46
ENDBRANCH   5  45
ENDBRANCH   1   5
BRANCH   3  49
ATOM     49  CA  ARG A   5     -22.680 -10.495  -5.387  1.00  0.00     0.171 C 
BRANCH  49  50
ATOM     50  C   ARG A   5     -23.897 -11.194  -4.886  1.00  0.00     0.243 C 
ATOM     51  N   LYS A   6     -24.983 -10.406  -4.429  1.00  0.00    -0.341 N 
ATOM     52  O   ARG A   5     -23.963 -12.455  -4.870  1.00  0.00    -0.273 OA
ATOM     53  H   UNL     1     -24.938  -9.367  -4.545  1.00  0.00     0.164 HD
BRANCH  51  54
ATOM     54  CA  LYS A   6     -26.186 -11.009  -3.881  1.00  0.00     0.192 C 
BRANCH  54  55
ATOM     55  C   LYS A   6     -27.049 -11.527  -5.000  1.00  0.00     0.326 C 
ATOM     56  O   LYS A   6     -27.154 -10.885  -6.079  1.00  0.00    -0.250 OA
BRANCH  55  57
ATOM     57  OXT LYS A   6     -27.749 -12.719  -4.834  1.00  0.00    -0.480 OA
ATOM     58  H   UNL     1     -28.341 -13.080  -5.572  1.00  0.00     0.296 HD
ENDBRANCH  55  57
ENDBRANCH  54  55
BRANCH  54  59
ATOM     59  CB  LYS A   6     -26.924  -9.966  -3.031  1.00  0.00     0.037 C 
BRANCH  59  60
ATOM     60  CG  LYS A   6     -28.080 -10.557  -2.215  1.00  0.00     0.004 C 
BRANCH  60  61
ATOM     61  CD  LYS A   6     -27.605 -11.425  -1.036  1.00  0.00     0.015 C 
BRANCH  61  62
ATOM     62  CE  LYS A   6     -28.769 -11.833  -0.126  1.00  0.00     0.077 C 
BRANCH  62  63
ATOM     63  NZ  LYS A   6     -29.716 -12.685  -0.842  1.00  0.00    -0.330 NA
ATOM     64  H   UNL     1     -30.515 -12.883  -0.198  1.00  0.00     0.118 HD
ATOM     65  H   UNL     1     -29.252 -13.603  -1.031  1.00  0.00     0.118 HD
ENDBRANCH  62  63
ENDBRANCH  61  62
ENDBRANCH  60  61
ENDBRANCH  59  60
ENDBRANCH  54  59
ENDBRANCH  51  54
ENDBRANCH  49  50
BRANCH  49  66
ATOM     66  CB  ARG A   5     -22.650 -10.517  -6.915  1.00  0.00     0.037 C 
BRANCH  66  67
ATOM     67  CG  ARG A   5     -21.461  -9.718  -7.458  1.00  0.00     0.024 C 
BRANCH  67  68
ATOM     68  CD  ARG A   5     -21.601  -9.479  -8.963  1.00  0.00     0.116 C 
BRANCH  68  69
ATOM     69  NE  ARG A   5     -21.189  -8.117  -9.282  1.00  0.00    -0.357 N 
ATOM     70  CZ  ARG A   5     -20.074  -7.774 -10.104  1.00  0.00     0.185 C 
ATOM     71  NH2 ARG A   5     -19.200  -8.774 -10.616  1.00  0.00    -0.370 N 
ATOM     72  H   UNL     1     -21.774  -7.342  -8.893  1.00  0.00     0.163 HD
ATOM     73  H   UNL     1     -19.096  -9.710 -10.171  1.00  0.00     0.159 HD
ATOM     74  H   UNL     1     -18.493  -8.517 -11.342  1.00  0.00     0.159 HD
BRANCH  70  75
ATOM     75  NH1 ARG A   5     -19.846  -6.532 -10.391  1.00  0.00    -0.270 NA
ATOM     76  H   UNL     1     -20.456  -5.762 -10.037  1.00  0.00     0.191 HD
ENDBRANCH  70  75
ENDBRANCH  68  69
ENDBRANCH  67  68
ENDBRANCH  66  67
ENDBRANCH  49  66
ENDBRANCH   3  49
TORSDOF 34
