REMARK SMILES N=C(N)NCCC[C@H](NC(=O)CNC(=O)[C@H](CO)NC(=O)[C@H](Cc1ccccc1)NC(=O)[C@@H](N)CO)C(=O)N[C@@H](CC(N)=O)C(=O)O
REMARK SMILES IDX 14 1 15 2 13 3 16 5 19 6 20 7 21 8 22 10 30 11 31 12 32 13
REMARK SMILES IDX 33 15 34 16 35 19 36 20 23 22 24 23 25 24 29 25 26 26 28 27
REMARK SMILES IDX 27 28 17 29 18 30 12 32 10 33 9 34 11 35 8 37 37 38 39 39
REMARK SMILES IDX 38 40 40 42 45 43 46 44 47 45 41 47 42 48 43 49 44 50 7 53
REMARK SMILES IDX 6 54 5 55 4 56 2 57 3 58 1 62
REMARK H PARENT 13 4 19 9 30 14 34 17 34 18 36 21 18 31 9 36 39 41 47 46 43 51
REMARK H PARENT 43 52 4 59 3 60 3 61 1 63
ROOT
ATOM      1  C   SER A   3     -18.399 -10.532  -4.858  1.00  0.00     0.245 C 
ATOM      2  O   SER A   3     -18.765 -11.388  -5.709  1.00  0.00    -0.273 OA
ATOM      3  N   GLY A   4     -18.816 -10.623  -3.496  1.00  0.00    -0.345 N 
ATOM      4  H   UNL     1     -18.401  -9.976  -2.789  1.00  0.00     0.164 HD
ENDROOT
BRANCH   1   5
ATOM      5  CA  SER A   3     -17.464  -9.433  -5.248  1.00  0.00     0.197 C 
BRANCH   5   6
ATOM      6  N   SER A   3     -16.223 -10.014  -5.722  1.00  0.00    -0.340 N 
ATOM      7  C   PHE A   2     -15.259 -10.544  -4.821  1.00  0.00     0.243 C 
ATOM      8  O   PHE A   2     -15.478 -10.572  -3.578  1.00  0.00    -0.273 OA
ATOM      9  H   UNL     1     -16.049 -10.075  -6.751  1.00  0.00     0.164 HD
BRANCH   7  10
ATOM     10  CA  PHE A   2     -13.980 -11.061  -5.382  1.00  0.00     0.175 C 
BRANCH  10  11
ATOM     11  N   PHE A   2     -12.858 -10.484  -4.661  1.00  0.00    -0.343 N 
ATOM     12  C   SER A   1     -12.602  -9.082  -4.707  1.00  0.00     0.239 C 
ATOM     13  O   SER A   1     -13.364  -8.313  -5.356  1.00  0.00    -0.273 OA
ATOM     14  H   UNL     1     -12.222 -11.101  -4.106  1.00  0.00     0.164 HD
BRANCH  12  15
ATOM     15  CA  SER A   1     -11.438  -8.537  -3.932  1.00  0.00     0.167 C 
BRANCH  15  16
ATOM     16  N   SER A   1     -10.845  -7.379  -4.604  1.00  0.00    -0.318 NA
ATOM     17  H   UNL     1     -10.475  -7.686  -5.534  1.00  0.00     0.119 HD
ATOM     18  H   UNL     1     -11.573  -6.650  -4.787  1.00  0.00     0.119 HD
ENDBRANCH  15  16
BRANCH  15  19
ATOM     19  CB  SER A   1     -11.839  -8.203  -2.483  1.00  0.00     0.184 C 
BRANCH  19  20
ATOM     20  OG  SER A   1     -12.058  -6.826  -2.328  1.00  0.00    -0.394 OA
ATOM     21  H   UNL     1     -12.315  -6.693  -1.378  1.00  0.00     0.210 HD
ENDBRANCH  19  20
ENDBRANCH  15  19
ENDBRANCH  12  15
ENDBRANCH  10  11
BRANCH  10  22
ATOM     22  CB  PHE A   2     -13.966 -12.597  -5.325  1.00  0.00     0.070 C 
BRANCH  22  23
ATOM     23  CG  PHE A   2     -12.883 -13.199  -6.183  1.00  0.00    -0.045 A 
ATOM     24  CD1 PHE A   2     -12.723 -12.806  -7.526  1.00  0.00     0.004 A 
ATOM     25  CD2 PHE A   2     -12.092 -14.244  -5.682  1.00  0.00     0.004 A 
ATOM     26  CE1 PHE A   2     -11.747 -13.399  -8.324  1.00  0.00     0.000 A 
ATOM     27  CE2 PHE A   2     -11.133 -14.853  -6.495  1.00  0.00     0.000 A 
ATOM     28  CZ  PHE A   2     -10.955 -14.424  -7.811  1.00  0.00     0.000 A 
ENDBRANCH  22  23
ENDBRANCH  10  22
ENDBRANCH   7  10
ENDBRANCH   5   6
BRANCH   5  29
ATOM     29  CB  SER A   3     -18.082  -8.539  -6.321  1.00  0.00     0.191 C 
BRANCH  29  30
ATOM     30  OG  SER A   3     -17.214  -7.479  -6.616  1.00  0.00    -0.394 OA
ATOM     31  H   UNL     1     -17.661  -6.947  -7.324  1.00  0.00     0.210 HD
ENDBRANCH  29  30
ENDBRANCH   5  29
ENDBRANCH   1   5
BRANCH   3  32
ATOM     32  CA  GLY A   4     -19.832 -11.555  -3.040  1.00  0.00     0.216 C 
BRANCH  32  33
ATOM     33  C   GLY A   4     -21.162 -11.053  -3.467  1.00  0.00     0.240 C 
ATOM     34  N   ARG A   5     -21.502 -11.139  -4.844  1.00  0.00    -0.343 N 
ATOM     35  O   GLY A   4     -21.959 -10.548  -2.631  1.00  0.00    -0.273 OA
ATOM     36  H   UNL     1     -21.070 -11.910  -5.400  1.00  0.00     0.164 HD
BRANCH  34  37
ATOM     37  CA  ARG A   5     -22.678 -10.495  -5.386  1.00  0.00     0.171 C 
BRANCH  37  38
ATOM     38  C   ARG A   5     -23.896 -11.194  -4.885  1.00  0.00     0.243 C 
ATOM     39  N   ASN A   6     -24.982 -10.402  -4.433  1.00  0.00    -0.341 N 
ATOM     40  O   ARG A   5     -23.964 -12.454  -4.868  1.00  0.00    -0.273 OA
ATOM     41  H   UNL     1     -24.931  -9.364  -4.553  1.00  0.00     0.164 HD
BRANCH  39  42
ATOM     42  CA  ASN A   6     -26.189 -10.994  -3.883  1.00  0.00     0.201 C 
BRANCH  42  43
ATOM     43  C   ASN A   6     -27.052 -11.522  -4.997  1.00  0.00     0.326 C 
ATOM     44  O   ASN A   6     -27.151 -10.892  -6.084  1.00  0.00    -0.250 OA
BRANCH  43  45
ATOM     45  OXT ASN A   6     -27.773 -12.698  -4.811  1.00  0.00    -0.480 OA
ATOM     46  H   UNL     1     -28.370 -13.063  -5.543  1.00  0.00     0.296 HD
ENDBRANCH  43  45
ENDBRANCH  42  43
BRANCH  42  47
ATOM     47  CB  ASN A   6     -26.930  -9.934  -3.062  1.00  0.00     0.136 C 
BRANCH  47  48
ATOM     48  CG  ASN A   6     -28.019 -10.549  -2.252  1.00  0.00     0.220 C 
ATOM     49  ND2 ASN A   6     -27.701 -11.241  -1.053  1.00  0.00    -0.370 N 
ATOM     50  OD1 ASN A   6     -29.213 -10.484  -2.643  1.00  0.00    -0.275 OA
ATOM     51  H   UNL     1     -26.713 -11.314  -0.724  1.00  0.00     0.159 HD
ATOM     52  H   UNL     1     -28.456 -11.688  -0.487  1.00  0.00     0.159 HD
ENDBRANCH  47  48
ENDBRANCH  42  47
ENDBRANCH  39  42
ENDBRANCH  37  38
BRANCH  37  53
ATOM     53  CB  ARG A   5     -22.649 -10.513  -6.915  1.00  0.00     0.037 C 
BRANCH  53  54
ATOM     54  CG  ARG A   5     -21.456  -9.722  -7.459  1.00  0.00     0.024 C 
BRANCH  54  55
ATOM     55  CD  ARG A   5     -21.602  -9.477  -8.963  1.00  0.00     0.116 C 
BRANCH  55  56
ATOM     56  NE  ARG A   5     -21.185  -8.116  -9.282  1.00  0.00    -0.357 N 
ATOM     57  CZ  ARG A   5     -20.070  -7.777 -10.102  1.00  0.00     0.185 C 
ATOM     58  NH2 ARG A   5     -19.199  -8.781 -10.617  1.00  0.00    -0.370 N 
ATOM     59  H   UNL     1     -21.764  -7.335  -8.897  1.00  0.00     0.163 HD
ATOM     60  H   UNL     1     -18.501  -8.537 -11.355  1.00  0.00     0.159 HD
ATOM     61  H   UNL     1     -19.097  -9.715 -10.168  1.00  0.00     0.159 HD
BRANCH  57  62
ATOM     62  NH1 ARG A   5     -19.850  -6.531 -10.379  1.00  0.00    -0.270 NA
ATOM     63  H   UNL     1     -19.045  -6.233 -10.974  1.00  0.00     0.191 HD
ENDBRANCH  57  62
ENDBRANCH  55  56
ENDBRANCH  54  55
ENDBRANCH  53  54
ENDBRANCH  37  53
ENDBRANCH  34  37
ENDBRANCH  32  33
ENDBRANCH   3  32
TORSDOF 26
