REMARK SMILES CC(C)C[C@H](NC(=O)[C@H](CCCNC(=N)N)NC(=O)[C@H](Cc1ccccc1)NC(=O)[C@@H](N)CO)C(=O)N[C@@H](CCCCN)C(=O)N[C@@H](CC(N)=O)C(=O)O
REMARK SMILES IDX 7 1 8 2 6 3 9 5 17 6 18 7 19 8 20 10 28 11 29 12 30 13 31 15
REMARK SMILES IDX 32 16 33 19 34 20 21 22 22 23 23 24 27 25 24 26 26 27 25 28
REMARK SMILES IDX 10 29 11 30 12 31 13 32 14 33 16 34 15 38 5 40 35 41 37 42
REMARK SMILES IDX 36 43 38 45 44 46 46 47 45 48 47 50 52 51 53 52 54 53 48 55
REMARK SMILES IDX 49 56 50 57 51 58 39 61 40 62 41 63 42 64 43 65 4 68 2 69
REMARK SMILES IDX 1 70 3 71
REMARK H PARENT 6 4 17 9 28 14 32 17 32 18 34 21 13 35 16 36 16 37 15 39 37 44
REMARK H PARENT 46 49 54 54 50 59 50 60 43 66 43 67
ROOT
ATOM      1  C   ARG A   3     -18.382 -10.535  -4.865  1.00  0.00     0.243 C 
ATOM      2  O   ARG A   3     -18.741 -11.399  -5.711  1.00  0.00    -0.273 OA
ATOM      3  N   LEU A   4     -18.846 -10.576  -3.523  1.00  0.00    -0.343 N 
ATOM      4  H   UNL     1     -18.589  -9.789  -2.883  1.00  0.00     0.164 HD
ENDROOT
BRANCH   1   5
ATOM      5  CA  ARG A   3     -17.456  -9.434  -5.245  1.00  0.00     0.171 C 
BRANCH   5   6
ATOM      6  N   ARG A   3     -16.213 -10.000  -5.727  1.00  0.00    -0.343 N 
ATOM      7  C   PHE A   2     -15.255 -10.542  -4.825  1.00  0.00     0.243 C 
ATOM      8  O   PHE A   2     -15.479 -10.576  -3.584  1.00  0.00    -0.273 OA
ATOM      9  H   UNL     1     -16.022 -10.026  -6.755  1.00  0.00     0.164 HD
BRANCH   7  10
ATOM     10  CA  PHE A   2     -13.977 -11.060  -5.383  1.00  0.00     0.175 C 
BRANCH  10  11
ATOM     11  N   PHE A   2     -12.857 -10.484  -4.659  1.00  0.00    -0.343 N 
ATOM     12  C   SER A   1     -12.596  -9.082  -4.702  1.00  0.00     0.239 C 
ATOM     13  O   SER A   1     -13.354  -8.307  -5.350  1.00  0.00    -0.273 OA
ATOM     14  H   UNL     1     -12.222 -11.103  -4.104  1.00  0.00     0.164 HD
BRANCH  12  15
ATOM     15  CA  SER A   1     -11.430  -8.545  -3.930  1.00  0.00     0.167 C 
BRANCH  15  16
ATOM     16  N   SER A   1     -10.864  -7.379  -4.607  1.00  0.00    -0.318 NA
ATOM     17  H   UNL     1     -10.001  -7.089  -4.092  1.00  0.00     0.119 HD
ATOM     18  H   UNL     1     -10.544  -7.674  -5.559  1.00  0.00     0.119 HD
ENDBRANCH  15  16
BRANCH  15  19
ATOM     19  CB  SER A   1     -11.839  -8.205  -2.484  1.00  0.00     0.184 C 
BRANCH  19  20
ATOM     20  OG  SER A   1     -12.062  -6.828  -2.339  1.00  0.00    -0.394 OA
ATOM     21  H   UNL     1     -12.322  -6.688  -1.391  1.00  0.00     0.210 HD
ENDBRANCH  19  20
ENDBRANCH  15  19
ENDBRANCH  12  15
ENDBRANCH  10  11
BRANCH  10  22
ATOM     22  CB  PHE A   2     -13.965 -12.595  -5.327  1.00  0.00     0.070 C 
BRANCH  22  23
ATOM     23  CG  PHE A   2     -12.883 -13.199  -6.184  1.00  0.00    -0.045 A 
ATOM     24  CD1 PHE A   2     -12.723 -12.807  -7.526  1.00  0.00     0.004 A 
ATOM     25  CD2 PHE A   2     -12.092 -14.244  -5.682  1.00  0.00     0.004 A 
ATOM     26  CE1 PHE A   2     -11.747 -13.399  -8.324  1.00  0.00     0.000 A 
ATOM     27  CE2 PHE A   2     -11.133 -14.853  -6.495  1.00  0.00     0.000 A 
ATOM     28  CZ  PHE A   2     -10.955 -14.424  -7.811  1.00  0.00     0.000 A 
ENDBRANCH  22  23
ENDBRANCH  10  22
ENDBRANCH   7  10
ENDBRANCH   5   6
BRANCH   5  29
ATOM     29  CB  ARG A   3     -18.108  -8.532  -6.293  1.00  0.00     0.037 C 
BRANCH  29  30
ATOM     30  CG  ARG A   3     -17.532  -7.113  -6.263  1.00  0.00     0.024 C 
BRANCH  30  31
ATOM     31  CD  ARG A   3     -18.192  -6.231  -7.327  1.00  0.00     0.116 C 
BRANCH  31  32
ATOM     32  NE  ARG A   3     -19.644  -6.158  -7.151  1.00  0.00    -0.357 N 
ATOM     33  CZ  ARG A   3     -20.275  -5.469  -6.062  1.00  0.00     0.185 C 
ATOM     34  NH2 ARG A   3     -21.692  -5.564  -5.894  1.00  0.00    -0.370 N 
ATOM     35  H   UNL     1     -20.249  -6.615  -7.869  1.00  0.00     0.163 HD
ATOM     36  H   UNL     1     -22.174  -5.069  -5.111  1.00  0.00     0.159 HD
ATOM     37  H   UNL     1     -22.264  -6.143  -6.548  1.00  0.00     0.159 HD
BRANCH  33  38
ATOM     38  NH1 ARG A   3     -19.570  -4.757  -5.241  1.00  0.00    -0.270 NA
ATOM     39  H   UNL     1     -20.008  -4.244  -4.443  1.00  0.00     0.191 HD
ENDBRANCH  33  38
ENDBRANCH  31  32
ENDBRANCH  30  31
ENDBRANCH  29  30
ENDBRANCH   5  29
ENDBRANCH   1   5
BRANCH   3  40
ATOM     40  CA  LEU A   4     -19.818 -11.542  -3.055  1.00  0.00     0.171 C 
BRANCH  40  41
ATOM     41  C   LEU A   4     -21.171 -11.058  -3.466  1.00  0.00     0.243 C 
ATOM     42  N   LYS A   5     -21.505 -11.133  -4.847  1.00  0.00    -0.343 N 
ATOM     43  O   LEU A   4     -21.974 -10.549  -2.636  1.00  0.00    -0.273 OA
ATOM     44  H   UNL     1     -21.060 -11.891  -5.411  1.00  0.00     0.164 HD
BRANCH  42  45
ATOM     45  CA  LYS A   5     -22.679 -10.488  -5.395  1.00  0.00     0.171 C 
BRANCH  45  46
ATOM     46  C   LYS A   5     -23.898 -11.189  -4.893  1.00  0.00     0.243 C 
ATOM     47  N   ASN A   6     -24.982 -10.399  -4.435  1.00  0.00    -0.341 N 
ATOM     48  O   LYS A   5     -23.963 -12.449  -4.873  1.00  0.00    -0.273 OA
ATOM     49  H   UNL     1     -24.931  -9.360  -4.551  1.00  0.00     0.164 HD
BRANCH  47  50
ATOM     50  CA  ASN A   6     -26.188 -10.993  -3.884  1.00  0.00     0.201 C 
BRANCH  50  51
ATOM     51  C   ASN A   6     -27.052 -11.522  -4.997  1.00  0.00     0.326 C 
ATOM     52  O   ASN A   6     -27.152 -10.892  -6.084  1.00  0.00    -0.250 OA
BRANCH  51  53
ATOM     53  OXT ASN A   6     -27.771 -12.698  -4.810  1.00  0.00    -0.480 OA
ATOM     54  H   UNL     1     -28.369 -13.064  -5.542  1.00  0.00     0.296 HD
ENDBRANCH  51  53
ENDBRANCH  50  51
BRANCH  50  55
ATOM     55  CB  ASN A   6     -26.929  -9.934  -3.062  1.00  0.00     0.136 C 
BRANCH  55  56
ATOM     56  CG  ASN A   6     -28.019 -10.550  -2.252  1.00  0.00     0.220 C 
ATOM     57  ND2 ASN A   6     -27.701 -11.242  -1.054  1.00  0.00    -0.370 N 
ATOM     58  OD1 ASN A   6     -29.213 -10.484  -2.643  1.00  0.00    -0.275 OA
ATOM     59  H   UNL     1     -26.712 -11.315  -0.725  1.00  0.00     0.159 HD
ATOM     60  H   UNL     1     -28.456 -11.688  -0.487  1.00  0.00     0.159 HD
ENDBRANCH  55  56
ENDBRANCH  50  55
ENDBRANCH  47  50
ENDBRANCH  45  46
BRANCH  45  61
ATOM     61  CB  LYS A   5     -22.645 -10.503  -6.928  1.00  0.00     0.035 C 
BRANCH  61  62
ATOM     62  CG  LYS A   5     -21.441  -9.715  -7.465  1.00  0.00     0.004 C 
BRANCH  62  63
ATOM     63  CD  LYS A   5     -21.514  -9.493  -8.978  1.00  0.00     0.015 C 
BRANCH  63  64
ATOM     64  CE  LYS A   5     -21.296 -10.784  -9.776  1.00  0.00     0.077 C 
BRANCH  64  65
ATOM     65  NZ  LYS A   5     -21.257 -10.490 -11.205  1.00  0.00    -0.330 NA
ATOM     66  H   UNL     1     -21.194 -11.400 -11.715  1.00  0.00     0.118 HD
ATOM     67  H   UNL     1     -20.369  -9.975 -11.408  1.00  0.00     0.118 HD
ENDBRANCH  64  65
ENDBRANCH  63  64
ENDBRANCH  62  63
ENDBRANCH  61  62
ENDBRANCH  45  61
ENDBRANCH  42  45
ENDBRANCH  40  41
BRANCH  40  68
ATOM     68  CB  LEU A   4     -19.655 -11.691  -1.535  1.00  0.00     0.038 C 
BRANCH  68  69
ATOM     69  CG  LEU A   4     -20.297 -12.956  -0.946  1.00  0.00    -0.015 C 
ATOM     70  CD1 LEU A   4     -19.611 -14.232  -1.462  1.00  0.00     0.007 C 
ATOM     71  CD2 LEU A   4     -20.195 -12.898   0.583  1.00  0.00     0.007 C 
ENDBRANCH  68  69
ENDBRANCH  40  68
ENDBRANCH   3  40
TORSDOF 31
