REMARK SMILES CC(C)C[C@H](NC(=O)[C@H](Cc1c[nH]cn1)NC(=O)[C@H](Cc1ccccc1)NC(=O)[C@@H](N)CO)C(=O)N[C@@H](CCCNC(=N)N)C(=O)N[C@@H](CO)C(=O)O
REMARK SMILES IDX 7 1 8 2 6 3 9 5 16 6 17 7 18 8 19 10 27 11 28 12 29 13 30 15
REMARK SMILES IDX 31 16 32 19 33 20 20 22 21 23 22 24 26 25 23 26 25 27 24 28
REMARK SMILES IDX 10 29 11 30 15 31 12 32 14 33 13 34 5 36 34 37 36 38 35 39
REMARK SMILES IDX 37 41 45 42 47 43 46 44 48 46 51 47 52 48 53 49 49 51 50 52
REMARK SMILES IDX 38 54 39 55 40 56 41 57 42 58 44 59 43 63 4 65 2 66 1 67
REMARK SMILES IDX 3 68
REMARK H PARENT 6 4 16 9 27 14 31 17 31 18 33 21 13 35 36 40 47 45 53 50 50 53
REMARK H PARENT 41 60 44 61 44 62 43 64
ROOT
ATOM      1  C   HIS A   3     -18.389 -10.526  -4.870  1.00  0.00     0.243 C 
ATOM      2  O   HIS A   3     -18.746 -11.391  -5.717  1.00  0.00    -0.273 OA
ATOM      3  N   LEU A   4     -18.847 -10.575  -3.525  1.00  0.00    -0.342 N 
ATOM      4  H   UNL     1     -18.585  -9.792  -2.881  1.00  0.00     0.164 HD
ENDROOT
BRANCH   1   5
ATOM      5  CA  HIS A   3     -17.457  -9.427  -5.246  1.00  0.00     0.177 C 
BRANCH   5   6
ATOM      6  N   HIS A   3     -16.214 -10.000  -5.725  1.00  0.00    -0.342 N 
ATOM      7  C   PHE A   2     -15.256 -10.541  -4.823  1.00  0.00     0.243 C 
ATOM      8  O   PHE A   2     -15.479 -10.575  -3.582  1.00  0.00    -0.273 OA
ATOM      9  H   UNL     1     -16.027 -10.034  -6.753  1.00  0.00     0.164 HD
BRANCH   7  10
ATOM     10  CA  PHE A   2     -13.978 -11.059  -5.382  1.00  0.00     0.175 C 
BRANCH  10  11
ATOM     11  N   PHE A   2     -12.857 -10.485  -4.657  1.00  0.00    -0.343 N 
ATOM     12  C   SER A   1     -12.592  -9.085  -4.703  1.00  0.00     0.239 C 
ATOM     13  O   SER A   1     -13.342  -8.311  -5.359  1.00  0.00    -0.273 OA
ATOM     14  H   UNL     1     -12.226 -11.105  -4.097  1.00  0.00     0.164 HD
BRANCH  12  15
ATOM     15  CA  SER A   1     -11.426  -8.547  -3.930  1.00  0.00     0.167 C 
BRANCH  15  16
ATOM     16  N   SER A   1     -10.861  -7.382  -4.608  1.00  0.00    -0.318 NA
ATOM     17  H   UNL     1     -10.537  -7.678  -5.558  1.00  0.00     0.119 HD
ATOM     18  H   UNL     1     -10.000  -7.089  -4.091  1.00  0.00     0.119 HD
ENDBRANCH  15  16
BRANCH  15  19
ATOM     19  CB  SER A   1     -11.841  -8.203  -2.486  1.00  0.00     0.184 C 
BRANCH  19  20
ATOM     20  OG  SER A   1     -12.065  -6.827  -2.333  1.00  0.00    -0.394 OA
ATOM     21  H   UNL     1     -12.952  -6.642  -2.738  1.00  0.00     0.210 HD
ENDBRANCH  19  20
ENDBRANCH  15  19
ENDBRANCH  12  15
ENDBRANCH  10  11
BRANCH  10  22
ATOM     22  CB  PHE A   2     -13.966 -12.595  -5.327  1.00  0.00     0.070 C 
BRANCH  22  23
ATOM     23  CG  PHE A   2     -12.883 -13.199  -6.183  1.00  0.00    -0.045 A 
ATOM     24  CD1 PHE A   2     -12.723 -12.806  -7.526  1.00  0.00     0.004 A 
ATOM     25  CD2 PHE A   2     -12.092 -14.243  -5.682  1.00  0.00     0.004 A 
ATOM     26  CE1 PHE A   2     -11.747 -13.399  -8.324  1.00  0.00     0.000 A 
ATOM     27  CE2 PHE A   2     -11.134 -14.853  -6.495  1.00  0.00     0.000 A 
ATOM     28  CZ  PHE A   2     -10.955 -14.424  -7.811  1.00  0.00     0.000 A 
ENDBRANCH  22  23
ENDBRANCH  10  22
ENDBRANCH   7  10
ENDBRANCH   5   6
BRANCH   5  29
ATOM     29  CB  HIS A   3     -18.090  -8.504  -6.296  1.00  0.00     0.093 C 
BRANCH  29  30
ATOM     30  CG  HIS A   3     -17.539  -7.103  -6.280  1.00  0.00     0.061 A 
ATOM     31  ND1 HIS A   3     -18.150  -6.077  -6.908  1.00  0.00    -0.242 NA
ATOM     32  CD2 HIS A   3     -16.347  -6.662  -5.738  1.00  0.00     0.107 A 
ATOM     33  CE1 HIS A   3     -17.322  -5.029  -6.716  1.00  0.00     0.196 A 
ATOM     34  NE2 HIS A   3     -16.223  -5.355  -6.012  1.00  0.00    -0.351 N 
ATOM     35  H   UNL     1     -15.437  -4.725  -5.739  1.00  0.00     0.167 HD
ENDBRANCH  29  30
ENDBRANCH   5  29
ENDBRANCH   1   5
BRANCH   3  36
ATOM     36  CA  LEU A   4     -19.817 -11.542  -3.055  1.00  0.00     0.171 C 
BRANCH  36  37
ATOM     37  C   LEU A   4     -21.171 -11.060  -3.463  1.00  0.00     0.243 C 
ATOM     38  N   ARG A   5     -21.508 -11.139  -4.842  1.00  0.00    -0.343 N 
ATOM     39  O   LEU A   4     -21.972 -10.549  -2.633  1.00  0.00    -0.273 OA
ATOM     40  H   UNL     1     -21.062 -11.896  -5.406  1.00  0.00     0.164 HD
BRANCH  38  41
ATOM     41  CA  ARG A   5     -22.683 -10.495  -5.386  1.00  0.00     0.171 C 
BRANCH  41  42
ATOM     42  C   ARG A   5     -23.902 -11.194  -4.882  1.00  0.00     0.243 C 
ATOM     43  N   SER A   6     -24.985 -10.405  -4.414  1.00  0.00    -0.339 N 
ATOM     44  O   ARG A   5     -23.969 -12.454  -4.870  1.00  0.00    -0.273 OA
ATOM     45  H   UNL     1     -24.925  -9.364  -4.499  1.00  0.00     0.164 HD
BRANCH  43  46
ATOM     46  CA  SER A   6     -26.196 -11.004  -3.874  1.00  0.00     0.218 C 
BRANCH  46  47
ATOM     47  C   SER A   6     -27.059 -11.520  -4.994  1.00  0.00     0.328 C 
ATOM     48  O   SER A   6     -27.146 -10.888  -6.081  1.00  0.00    -0.250 OA
BRANCH  47  49
ATOM     49  OXT SER A   6     -27.793 -12.688  -4.812  1.00  0.00    -0.480 OA
ATOM     50  H   UNL     1     -28.390 -13.046  -5.548  1.00  0.00     0.296 HD
ENDBRANCH  47  49
ENDBRANCH  46  47
BRANCH  46  51
ATOM     51  CB  SER A   6     -26.947  -9.965  -3.034  1.00  0.00     0.193 C 
BRANCH  51  52
ATOM     52  OG  SER A   6     -28.081 -10.534  -2.435  1.00  0.00    -0.394 OA
ATOM     53  H   UNL     1     -27.755 -11.089  -1.679  1.00  0.00     0.210 HD
ENDBRANCH  51  52
ENDBRANCH  46  51
ENDBRANCH  43  46
ENDBRANCH  41  42
BRANCH  41  54
ATOM     54  CB  ARG A   5     -22.652 -10.516  -6.915  1.00  0.00     0.037 C 
BRANCH  54  55
ATOM     55  CG  ARG A   5     -21.463  -9.717  -7.458  1.00  0.00     0.024 C 
BRANCH  55  56
ATOM     56  CD  ARG A   5     -21.603  -9.478  -8.963  1.00  0.00     0.116 C 
BRANCH  56  57
ATOM     57  NE  ARG A   5     -21.186  -8.116  -9.283  1.00  0.00    -0.357 N 
ATOM     58  CZ  ARG A   5     -20.069  -7.777 -10.102  1.00  0.00     0.185 C 
ATOM     59  NH2 ARG A   5     -19.198  -8.780 -10.617  1.00  0.00    -0.370 N 
ATOM     60  H   UNL     1     -21.767  -7.335  -8.901  1.00  0.00     0.163 HD
ATOM     61  H   UNL     1     -18.499  -8.536 -11.353  1.00  0.00     0.159 HD
ATOM     62  H   UNL     1     -19.097  -9.716 -10.169  1.00  0.00     0.159 HD
BRANCH  58  63
ATOM     63  NH1 ARG A   5     -19.849  -6.531 -10.377  1.00  0.00    -0.270 NA
ATOM     64  H   UNL     1     -19.043  -6.232 -10.971  1.00  0.00     0.191 HD
ENDBRANCH  58  63
ENDBRANCH  56  57
ENDBRANCH  55  56
ENDBRANCH  54  55
ENDBRANCH  41  54
ENDBRANCH  38  41
ENDBRANCH  36  37
BRANCH  36  65
ATOM     65  CB  LEU A   4     -19.652 -11.691  -1.535  1.00  0.00     0.038 C 
BRANCH  65  66
ATOM     66  CG  LEU A   4     -20.296 -12.956  -0.946  1.00  0.00    -0.015 C 
ATOM     67  CD1 LEU A   4     -19.611 -14.232  -1.462  1.00  0.00     0.007 C 
ATOM     68  CD2 LEU A   4     -20.194 -12.898   0.582  1.00  0.00     0.007 C 
ENDBRANCH  65  66
ENDBRANCH  36  65
ENDBRANCH   3  36
TORSDOF 28
