REMARK SMILES CC(C)C[C@H](NC(=O)[C@H](CCCNC(=N)N)NC(=O)[C@@H](N)CO)C(=O)N[C@@H](Cc1ccccc1)C(=O)N[C@@H](CCCNC(=N)N)C(=O)N[C@@H](CC(N)=O)C(=O)O
REMARK SMILES IDX 24 1 25 2 26 3 5 5 6 6 7 7 8 8 9 10 17 11 18 12 19 13 20 15
REMARK SMILES IDX 21 16 22 19 23 20 10 22 11 23 12 24 13 25 14 26 16 27 15 31
REMARK SMILES IDX 4 33 2 34 1 35 3 36 27 37 35 38 37 39 36 40 38 42 46 43
REMARK SMILES IDX 48 44 47 45 49 47 54 48 55 49 56 50 50 52 51 53 52 54 53 55
REMARK SMILES IDX 39 58 40 59 41 60 42 61 43 62 45 63 44 67 28 69 29 70 30 71
REMARK SMILES IDX 34 72 31 73 33 74 32 75
REMARK H PARENT 26 4 6 9 17 14 21 17 21 18 23 21 13 28 16 29 16 30 15 32 37 41
REMARK H PARENT 48 46 56 51 52 56 52 57 42 64 45 65 45 66 44 68
ROOT
ATOM      1  C   LEU A   3     -18.384 -10.554  -4.863  1.00  0.00     0.243 C 
ATOM      2  O   LEU A   3     -18.754 -11.409  -5.713  1.00  0.00    -0.273 OA
ATOM      3  N   PHE A   4     -18.838 -10.604  -3.514  1.00  0.00    -0.342 N 
ATOM      4  H   UNL     1     -18.555  -9.836  -2.863  1.00  0.00     0.164 HD
ENDROOT
BRANCH   1   5
ATOM      5  CA  LEU A   3     -17.452  -9.459  -5.243  1.00  0.00     0.171 C 
BRANCH   5   6
ATOM      6  N   LEU A   3     -16.212 -10.022  -5.736  1.00  0.00    -0.343 N 
ATOM      7  C   ARG A   2     -15.248 -10.555  -4.837  1.00  0.00     0.243 C 
ATOM      8  O   ARG A   2     -15.467 -10.581  -3.593  1.00  0.00    -0.273 OA
ATOM      9  H   UNL     1     -16.030 -10.057  -6.765  1.00  0.00     0.164 HD
BRANCH   7  10
ATOM     10  CA  ARG A   2     -13.968 -11.076  -5.396  1.00  0.00     0.171 C 
BRANCH  10  11
ATOM     11  N   ARG A   2     -12.853 -10.485  -4.672  1.00  0.00    -0.343 N 
ATOM     12  C   SER A   1     -12.599  -9.082  -4.708  1.00  0.00     0.239 C 
ATOM     13  O   SER A   1     -13.359  -8.308  -5.354  1.00  0.00    -0.273 OA
ATOM     14  H   UNL     1     -12.224 -11.094  -4.100  1.00  0.00     0.164 HD
BRANCH  12  15
ATOM     15  CA  SER A   1     -11.432  -8.545  -3.935  1.00  0.00     0.167 C 
BRANCH  15  16
ATOM     16  N   SER A   1     -10.865  -7.379  -4.611  1.00  0.00    -0.318 NA
ATOM     17  H   UNL     1     -10.543  -7.674  -5.562  1.00  0.00     0.119 HD
ATOM     18  H   UNL     1     -10.002  -7.089  -4.094  1.00  0.00     0.119 HD
ENDBRANCH  15  16
BRANCH  15  19
ATOM     19  CB  SER A   1     -11.843  -8.203  -2.489  1.00  0.00     0.184 C 
BRANCH  19  20
ATOM     20  OG  SER A   1     -12.064  -6.827  -2.332  1.00  0.00    -0.394 OA
ATOM     21  H   UNL     1     -12.953  -6.640  -2.734  1.00  0.00     0.210 HD
ENDBRANCH  19  20
ENDBRANCH  15  19
ENDBRANCH  12  15
ENDBRANCH  10  11
BRANCH  10  22
ATOM     22  CB  ARG A   2     -13.948 -12.609  -5.303  1.00  0.00     0.037 C 
BRANCH  22  23
ATOM     23  CG  ARG A   2     -12.852 -13.238  -6.173  1.00  0.00     0.024 C 
BRANCH  23  24
ATOM     24  CD  ARG A   2     -13.244 -13.317  -7.656  1.00  0.00     0.116 C 
BRANCH  24  25
ATOM     25  NE  ARG A   2     -12.191 -13.977  -8.427  1.00  0.00    -0.357 N 
ATOM     26  CZ  ARG A   2     -11.988 -15.398  -8.422  1.00  0.00     0.185 C 
ATOM     27  NH2 ARG A   2     -10.917 -15.962  -9.184  1.00  0.00    -0.370 N 
ATOM     28  H   UNL     1     -11.591 -13.389  -9.049  1.00  0.00     0.163 HD
ATOM     29  H   UNL     1     -10.754 -16.993  -9.199  1.00  0.00     0.159 HD
ATOM     30  H   UNL     1     -10.281 -15.346  -9.737  1.00  0.00     0.159 HD
BRANCH  26  31
ATOM     31  NH1 ARG A   2     -12.775 -16.170  -7.741  1.00  0.00    -0.270 NA
ATOM     32  H   UNL     1     -12.649 -17.207  -7.725  1.00  0.00     0.191 HD
ENDBRANCH  26  31
ENDBRANCH  24  25
ENDBRANCH  23  24
ENDBRANCH  22  23
ENDBRANCH  10  22
ENDBRANCH   7  10
ENDBRANCH   5   6
BRANCH   5  33
ATOM     33  CB  LEU A   3     -18.100  -8.527  -6.274  1.00  0.00     0.038 C 
BRANCH  33  34
ATOM     34  CG  LEU A   3     -17.543  -7.092  -6.222  1.00  0.00    -0.015 C 
ATOM     35  CD1 LEU A   3     -18.189  -6.264  -7.336  1.00  0.00     0.007 C 
ATOM     36  CD2 LEU A   3     -17.812  -6.424  -4.860  1.00  0.00     0.007 C 
ENDBRANCH  33  34
ENDBRANCH   5  33
ENDBRANCH   1   5
BRANCH   3  37
ATOM     37  CA  PHE A   4     -19.822 -11.560  -3.040  1.00  0.00     0.175 C 
BRANCH  37  38
ATOM     38  C   PHE A   4     -21.170 -11.064  -3.459  1.00  0.00     0.243 C 
ATOM     39  N   ARG A   5     -21.502 -11.143  -4.839  1.00  0.00    -0.343 N 
ATOM     40  O   PHE A   4     -21.969 -10.543  -2.635  1.00  0.00    -0.273 OA
ATOM     41  H   UNL     1     -21.064 -11.908  -5.399  1.00  0.00     0.164 HD
BRANCH  39  42
ATOM     42  CA  ARG A   5     -22.677 -10.498  -5.385  1.00  0.00     0.171 C 
BRANCH  42  43
ATOM     43  C   ARG A   5     -23.896 -11.195  -4.884  1.00  0.00     0.243 C 
ATOM     44  N   ASN A   6     -24.981 -10.403  -4.433  1.00  0.00    -0.341 N 
ATOM     45  O   ARG A   5     -23.965 -12.455  -4.867  1.00  0.00    -0.273 OA
ATOM     46  H   UNL     1     -24.930  -9.364  -4.552  1.00  0.00     0.164 HD
BRANCH  44  47
ATOM     47  CA  ASN A   6     -26.189 -10.994  -3.883  1.00  0.00     0.201 C 
BRANCH  47  48
ATOM     48  C   ASN A   6     -27.052 -11.522  -4.997  1.00  0.00     0.326 C 
ATOM     49  O   ASN A   6     -27.151 -10.892  -6.084  1.00  0.00    -0.250 OA
BRANCH  48  50
ATOM     50  OXT ASN A   6     -27.772 -12.698  -4.811  1.00  0.00    -0.480 OA
ATOM     51  H   UNL     1     -28.369 -13.063  -5.543  1.00  0.00     0.296 HD
ENDBRANCH  48  50
ENDBRANCH  47  48
BRANCH  47  52
ATOM     52  CB  ASN A   6     -26.929  -9.934  -3.062  1.00  0.00     0.136 C 
BRANCH  52  53
ATOM     53  CG  ASN A   6     -28.019 -10.549  -2.252  1.00  0.00     0.220 C 
ATOM     54  ND2 ASN A   6     -27.701 -11.242  -1.053  1.00  0.00    -0.370 N 
ATOM     55  OD1 ASN A   6     -29.213 -10.483  -2.642  1.00  0.00    -0.275 OA
ATOM     56  H   UNL     1     -26.712 -11.315  -0.725  1.00  0.00     0.159 HD
ATOM     57  H   UNL     1     -28.456 -11.688  -0.487  1.00  0.00     0.159 HD
ENDBRANCH  52  53
ENDBRANCH  47  52
ENDBRANCH  44  47
ENDBRANCH  42  43
BRANCH  42  58
ATOM     58  CB  ARG A   5     -22.647 -10.519  -6.914  1.00  0.00     0.037 C 
BRANCH  58  59
ATOM     59  CG  ARG A   5     -21.460  -9.719  -7.458  1.00  0.00     0.024 C 
BRANCH  59  60
ATOM     60  CD  ARG A   5     -21.601  -9.480  -8.962  1.00  0.00     0.116 C 
BRANCH  60  61
ATOM     61  NE  ARG A   5     -21.190  -8.117  -9.282  1.00  0.00    -0.357 N 
ATOM     62  CZ  ARG A   5     -20.075  -7.775 -10.105  1.00  0.00     0.185 C 
ATOM     63  NH2 ARG A   5     -19.200  -8.774 -10.616  1.00  0.00    -0.370 N 
ATOM     64  H   UNL     1     -21.774  -7.342  -8.893  1.00  0.00     0.163 HD
ATOM     65  H   UNL     1     -19.097  -9.711 -10.171  1.00  0.00     0.159 HD
ATOM     66  H   UNL     1     -18.494  -8.518 -11.341  1.00  0.00     0.159 HD
BRANCH  62  67
ATOM     67  NH1 ARG A   5     -19.847  -6.533 -10.392  1.00  0.00    -0.270 NA
ATOM     68  H   UNL     1     -20.457  -5.762 -10.039  1.00  0.00     0.191 HD
ENDBRANCH  62  67
ENDBRANCH  60  61
ENDBRANCH  59  60
ENDBRANCH  58  59
ENDBRANCH  42  58
ENDBRANCH  39  42
ENDBRANCH  37  38
BRANCH  37  69
ATOM     69  CB  PHE A   4     -19.670 -11.710  -1.515  1.00  0.00     0.070 C 
BRANCH  69  70
ATOM     70  CG  PHE A   4     -20.337 -12.951  -0.986  1.00  0.00    -0.045 A 
ATOM     71  CD1 PHE A   4     -21.601 -12.876  -0.377  1.00  0.00     0.004 A 
ATOM     72  CD2 PHE A   4     -19.720 -14.205  -1.137  1.00  0.00     0.004 A 
ATOM     73  CE1 PHE A   4     -22.232 -14.037   0.082  1.00  0.00     0.000 A 
ATOM     74  CE2 PHE A   4     -20.354 -15.363  -0.676  1.00  0.00     0.000 A 
ATOM     75  CZ  PHE A   4     -21.608 -15.279  -0.067  1.00  0.00     0.000 A 
ENDBRANCH  69  70
ENDBRANCH  37  69
ENDBRANCH   3  37
TORSDOF 31
