REMARK SMILES CC(C)C[C@H](NC(=O)[C@H](Cc1ccccc1)NC(=O)[C@@H](N)Cc1c[nH]cn1)C(=O)NCC(=O)N[C@@H](CCCNC(=N)N)C(=O)N[C@@H](CC(N)=O)C(=O)O
REMARK SMILES IDX 28 1 29 2 30 3 5 5 6 6 7 7 8 8 9 10 17 11 18 12 19 13 20 15
REMARK SMILES IDX 21 16 22 19 23 20 27 21 24 22 26 23 25 24 10 26 11 27 12 28
REMARK SMILES IDX 16 29 13 30 15 31 14 32 4 33 2 34 1 35 3 36 31 37 32 38
REMARK SMILES IDX 34 39 33 40 35 42 43 43 45 44 44 45 46 47 51 48 52 49 53 50
REMARK SMILES IDX 47 52 48 53 49 54 50 55 36 58 37 59 38 60 39 61 40 62 42 63
REMARK SMILES IDX 41 67
REMARK H PARENT 30 4 6 9 17 14 21 17 21 18 25 25 34 41 45 46 53 51 49 56 49 57
REMARK H PARENT 39 64 42 65 42 66 41 68
ROOT
ATOM      1  C   LEU A   3     -18.390 -10.561  -4.852  1.00  0.00     0.243 C 
ATOM      2  O   LEU A   3     -18.765 -11.403  -5.711  1.00  0.00    -0.273 OA
ATOM      3  N   GLY A   4     -18.819 -10.647  -3.492  1.00  0.00    -0.345 N 
ATOM      4  H   UNL     1     -18.407 -10.005  -2.778  1.00  0.00     0.164 HD
ENDROOT
BRANCH   1   5
ATOM      5  CA  LEU A   3     -17.461  -9.460  -5.228  1.00  0.00     0.171 C 
BRANCH   5   6
ATOM      6  N   LEU A   3     -16.219 -10.018  -5.721  1.00  0.00    -0.343 N 
ATOM      7  C   PHE A   2     -15.253 -10.548  -4.822  1.00  0.00     0.243 C 
ATOM      8  O   PHE A   2     -15.470 -10.580  -3.580  1.00  0.00    -0.273 OA
ATOM      9  H   UNL     1     -16.045 -10.064  -6.751  1.00  0.00     0.164 HD
BRANCH   7  10
ATOM     10  CA  PHE A   2     -13.976 -11.062  -5.384  1.00  0.00     0.175 C 
BRANCH  10  11
ATOM     11  N   PHE A   2     -12.854 -10.487  -4.663  1.00  0.00    -0.343 N 
ATOM     12  C   HIS A   1     -12.595  -9.086  -4.709  1.00  0.00     0.237 C 
ATOM     13  O   HIS A   1     -13.353  -8.315  -5.363  1.00  0.00    -0.273 OA
ATOM     14  H   UNL     1     -12.219 -11.104  -4.106  1.00  0.00     0.164 HD
BRANCH  12  15
ATOM     15  CA  HIS A   1     -11.443  -8.539  -3.923  1.00  0.00     0.147 C 
BRANCH  15  16
ATOM     16  N   HIS A   1     -10.889  -7.358  -4.583  1.00  0.00    -0.320 NA
ATOM     17  H   UNL     1     -10.053  -7.040  -4.040  1.00  0.00     0.119 HD
ATOM     18  H   UNL     1     -10.530  -7.645  -5.523  1.00  0.00     0.119 HD
ENDBRANCH  15  16
BRANCH  15  19
ATOM     19  CB  HIS A   1     -11.878  -8.217  -2.484  1.00  0.00     0.086 C 
BRANCH  19  20
ATOM     20  CG  HIS A   1     -12.885  -7.104  -2.414  1.00  0.00     0.060 A 
ATOM     21  ND1 HIS A   1     -12.566  -5.795  -2.469  1.00  0.00    -0.242 NA
ATOM     22  CD2 HIS A   1     -14.251  -7.249  -2.320  1.00  0.00     0.107 A 
ATOM     23  CE1 HIS A   1     -13.759  -5.167  -2.396  1.00  0.00     0.196 A 
ATOM     24  NE2 HIS A   1     -14.794  -6.023  -2.303  1.00  0.00    -0.351 N 
ATOM     25  H   UNL     1     -15.807  -5.781  -2.229  1.00  0.00     0.167 HD
ENDBRANCH  19  20
ENDBRANCH  15  19
ENDBRANCH  12  15
ENDBRANCH  10  11
BRANCH  10  26
ATOM     26  CB  PHE A   2     -13.964 -12.597  -5.327  1.00  0.00     0.070 C 
BRANCH  26  27
ATOM     27  CG  PHE A   2     -12.882 -13.200  -6.184  1.00  0.00    -0.045 A 
ATOM     28  CD1 PHE A   2     -12.722 -12.807  -7.527  1.00  0.00     0.004 A 
ATOM     29  CD2 PHE A   2     -12.091 -14.244  -5.683  1.00  0.00     0.004 A 
ATOM     30  CE1 PHE A   2     -11.747 -13.399  -8.324  1.00  0.00     0.000 A 
ATOM     31  CE2 PHE A   2     -11.133 -14.854  -6.496  1.00  0.00     0.000 A 
ATOM     32  CZ  PHE A   2     -10.954 -14.424  -7.812  1.00  0.00     0.000 A 
ENDBRANCH  26  27
ENDBRANCH  10  26
ENDBRANCH   7  10
ENDBRANCH   5   6
BRANCH   5  33
ATOM     33  CB  LEU A   3     -18.107  -8.529  -6.264  1.00  0.00     0.038 C 
BRANCH  33  34
ATOM     34  CG  LEU A   3     -17.544  -7.095  -6.219  1.00  0.00    -0.015 C 
ATOM     35  CD1 LEU A   3     -18.187  -6.268  -7.336  1.00  0.00     0.007 C 
ATOM     36  CD2 LEU A   3     -17.811  -6.421  -4.860  1.00  0.00     0.007 C 
ENDBRANCH  33  34
ENDBRANCH   5  33
ENDBRANCH   1   5
BRANCH   3  37
ATOM     37  CA  GLY A   4     -19.841 -11.571  -3.040  1.00  0.00     0.216 C 
BRANCH  37  38
ATOM     38  C   GLY A   4     -21.165 -11.056  -3.467  1.00  0.00     0.240 C 
ATOM     39  N   ARG A   5     -21.503 -11.138  -4.845  1.00  0.00    -0.343 N 
ATOM     40  O   GLY A   4     -21.960 -10.547  -2.632  1.00  0.00    -0.273 OA
ATOM     41  H   UNL     1     -21.071 -11.909  -5.401  1.00  0.00     0.164 HD
BRANCH  39  42
ATOM     42  CA  ARG A   5     -22.679 -10.496  -5.388  1.00  0.00     0.171 C 
BRANCH  42  43
ATOM     43  C   ARG A   5     -23.897 -11.194  -4.885  1.00  0.00     0.243 C 
ATOM     44  N   ASN A   6     -24.982 -10.402  -4.433  1.00  0.00    -0.341 N 
ATOM     45  O   ARG A   5     -23.965 -12.454  -4.868  1.00  0.00    -0.273 OA
ATOM     46  H   UNL     1     -24.931  -9.364  -4.553  1.00  0.00     0.164 HD
BRANCH  44  47
ATOM     47  CA  ASN A   6     -26.189 -10.994  -3.883  1.00  0.00     0.201 C 
BRANCH  47  48
ATOM     48  C   ASN A   6     -27.052 -11.522  -4.997  1.00  0.00     0.326 C 
ATOM     49  O   ASN A   6     -27.151 -10.892  -6.084  1.00  0.00    -0.250 OA
BRANCH  48  50
ATOM     50  OXT ASN A   6     -27.773 -12.698  -4.811  1.00  0.00    -0.480 OA
ATOM     51  H   UNL     1     -28.370 -13.063  -5.543  1.00  0.00     0.296 HD
ENDBRANCH  48  50
ENDBRANCH  47  48
BRANCH  47  52
ATOM     52  CB  ASN A   6     -26.930  -9.934  -3.062  1.00  0.00     0.136 C 
BRANCH  52  53
ATOM     53  CG  ASN A   6     -28.019 -10.549  -2.252  1.00  0.00     0.220 C 
ATOM     54  ND2 ASN A   6     -27.701 -11.241  -1.053  1.00  0.00    -0.370 N 
ATOM     55  OD1 ASN A   6     -29.213 -10.484  -2.643  1.00  0.00    -0.275 OA
ATOM     56  H   UNL     1     -26.713 -11.314  -0.724  1.00  0.00     0.159 HD
ATOM     57  H   UNL     1     -28.456 -11.688  -0.487  1.00  0.00     0.159 HD
ENDBRANCH  52  53
ENDBRANCH  47  52
ENDBRANCH  44  47
ENDBRANCH  42  43
BRANCH  42  58
ATOM     58  CB  ARG A   5     -22.650 -10.517  -6.916  1.00  0.00     0.037 C 
BRANCH  58  59
ATOM     59  CG  ARG A   5     -21.461  -9.718  -7.459  1.00  0.00     0.024 C 
BRANCH  59  60
ATOM     60  CD  ARG A   5     -21.602  -9.480  -8.963  1.00  0.00     0.116 C 
BRANCH  60  61
ATOM     61  NE  ARG A   5     -21.190  -8.117  -9.282  1.00  0.00    -0.357 N 
ATOM     62  CZ  ARG A   5     -20.075  -7.775 -10.105  1.00  0.00     0.185 C 
ATOM     63  NH2 ARG A   5     -19.200  -8.774 -10.616  1.00  0.00    -0.370 N 
ATOM     64  H   UNL     1     -21.775  -7.342  -8.894  1.00  0.00     0.163 HD
ATOM     65  H   UNL     1     -18.493  -8.517 -11.341  1.00  0.00     0.159 HD
ATOM     66  H   UNL     1     -19.097  -9.710 -10.171  1.00  0.00     0.159 HD
BRANCH  62  67
ATOM     67  NH1 ARG A   5     -19.847  -6.533 -10.392  1.00  0.00    -0.270 NA
ATOM     68  H   UNL     1     -20.457  -5.762 -10.039  1.00  0.00     0.191 HD
ENDBRANCH  62  67
ENDBRANCH  60  61
ENDBRANCH  59  60
ENDBRANCH  58  59
ENDBRANCH  42  58
ENDBRANCH  39  42
ENDBRANCH  37  38
ENDBRANCH   3  37
TORSDOF 26
