REMARK SMILES C[C@@H](O)[C@H](NC(=O)[C@H](Cc1ccccc1)NC(=O)[C@@H](N)CO)C(=O)NCC(=O)N[C@@H](CCCNC(=N)N)C(=O)N[C@@H](CC(N)=O)C(=O)O
REMARK SMILES IDX 23 1 24 2 25 3 4 5 5 6 6 7 7 8 8 10 16 11 17 12 18 13 19 15
REMARK SMILES IDX 20 16 21 19 22 20 9 22 10 23 11 24 15 25 12 26 14 27 13 28
REMARK SMILES IDX 2 29 1 30 3 31 26 33 27 34 29 35 28 36 30 38 38 39 40 40
REMARK SMILES IDX 39 41 41 43 46 44 47 45 48 46 42 48 43 49 44 50 45 51 31 54
REMARK SMILES IDX 32 55 33 56 34 57 35 58 37 59 36 63
REMARK H PARENT 25 4 5 9 16 14 20 17 20 18 22 21 3 32 29 37 40 42 48 47 44 52
REMARK H PARENT 44 53 34 60 37 61 37 62 36 64
ROOT
ATOM      1  C   THR A   3     -18.394 -10.546  -4.856  1.00  0.00     0.245 C 
ATOM      2  O   THR A   3     -18.763 -11.396  -5.710  1.00  0.00    -0.273 OA
ATOM      3  N   GLY A   4     -18.816 -10.635  -3.495  1.00  0.00    -0.345 N 
ATOM      4  H   UNL     1     -18.402  -9.990  -2.785  1.00  0.00     0.164 HD
ENDROOT
BRANCH   1   5
ATOM      5  CA  THR A   3     -17.467  -9.440  -5.242  1.00  0.00     0.200 C 
BRANCH   5   6
ATOM      6  N   THR A   3     -16.218 -10.007  -5.720  1.00  0.00    -0.340 N 
ATOM      7  C   PHE A   2     -15.257 -10.542  -4.819  1.00  0.00     0.243 C 
ATOM      8  O   PHE A   2     -15.477 -10.572  -3.577  1.00  0.00    -0.273 OA
ATOM      9  H   UNL     1     -16.049 -10.109  -6.745  1.00  0.00     0.164 HD
BRANCH   7  10
ATOM     10  CA  PHE A   2     -13.979 -11.061  -5.381  1.00  0.00     0.175 C 
BRANCH  10  11
ATOM     11  N   PHE A   2     -12.857 -10.484  -4.661  1.00  0.00    -0.343 N 
ATOM     12  C   SER A   1     -12.601  -9.082  -4.707  1.00  0.00     0.239 C 
ATOM     13  O   SER A   1     -13.364  -8.313  -5.356  1.00  0.00    -0.273 OA
ATOM     14  H   UNL     1     -12.220 -11.101  -4.106  1.00  0.00     0.164 HD
BRANCH  12  15
ATOM     15  CA  SER A   1     -11.438  -8.537  -3.932  1.00  0.00     0.167 C 
BRANCH  15  16
ATOM     16  N   SER A   1     -10.845  -7.378  -4.604  1.00  0.00    -0.318 NA
ATOM     17  H   UNL     1     -10.475  -7.685  -5.533  1.00  0.00     0.119 HD
ATOM     18  H   UNL     1     -11.573  -6.649  -4.787  1.00  0.00     0.119 HD
ENDBRANCH  15  16
BRANCH  15  19
ATOM     19  CB  SER A   1     -11.839  -8.202  -2.483  1.00  0.00     0.184 C 
BRANCH  19  20
ATOM     20  OG  SER A   1     -12.058  -6.826  -2.327  1.00  0.00    -0.394 OA
ATOM     21  H   UNL     1     -12.316  -6.693  -1.378  1.00  0.00     0.210 HD
ENDBRANCH  19  20
ENDBRANCH  15  19
ENDBRANCH  12  15
ENDBRANCH  10  11
BRANCH  10  22
ATOM     22  CB  PHE A   2     -13.966 -12.596  -5.325  1.00  0.00     0.070 C 
BRANCH  22  23
ATOM     23  CG  PHE A   2     -12.883 -13.199  -6.183  1.00  0.00    -0.045 A 
ATOM     24  CD1 PHE A   2     -12.723 -12.806  -7.526  1.00  0.00     0.004 A 
ATOM     25  CD2 PHE A   2     -12.092 -14.244  -5.682  1.00  0.00     0.004 A 
ATOM     26  CE1 PHE A   2     -11.747 -13.399  -8.324  1.00  0.00     0.000 A 
ATOM     27  CE2 PHE A   2     -11.134 -14.853  -6.495  1.00  0.00     0.000 A 
ATOM     28  CZ  PHE A   2     -10.955 -14.424  -7.811  1.00  0.00     0.000 A 
ENDBRANCH  22  23
ENDBRANCH  10  22
ENDBRANCH   7  10
ENDBRANCH   5   6
BRANCH   5  29
ATOM     29  CB  THR A   3     -18.122  -8.503  -6.277  1.00  0.00     0.143 C 
ATOM     30  CG2 THR A   3     -17.495  -7.103  -6.262  1.00  0.00     0.041 C 
BRANCH  29  31
ATOM     31  OG1 THR A   3     -18.143  -9.068  -7.568  1.00  0.00    -0.391 OA
ATOM     32  H   UNL     1     -17.327  -8.784  -8.056  1.00  0.00     0.211 HD
ENDBRANCH  29  31
ENDBRANCH   5  29
ENDBRANCH   1   5
BRANCH   3  33
ATOM     33  CA  GLY A   4     -19.836 -11.563  -3.041  1.00  0.00     0.216 C 
BRANCH  33  34
ATOM     34  C   GLY A   4     -21.163 -11.055  -3.467  1.00  0.00     0.240 C 
ATOM     35  N   ARG A   5     -21.502 -11.138  -4.845  1.00  0.00    -0.343 N 
ATOM     36  O   GLY A   4     -21.959 -10.548  -2.631  1.00  0.00    -0.273 OA
ATOM     37  H   UNL     1     -21.069 -11.908  -5.402  1.00  0.00     0.164 HD
BRANCH  35  38
ATOM     38  CA  ARG A   5     -22.679 -10.495  -5.387  1.00  0.00     0.171 C 
BRANCH  38  39
ATOM     39  C   ARG A   5     -23.896 -11.194  -4.884  1.00  0.00     0.243 C 
ATOM     40  N   ASN A   6     -24.982 -10.402  -4.433  1.00  0.00    -0.341 N 
ATOM     41  O   ARG A   5     -23.965 -12.454  -4.867  1.00  0.00    -0.273 OA
ATOM     42  H   UNL     1     -24.932  -9.364  -4.553  1.00  0.00     0.164 HD
BRANCH  40  43
ATOM     43  CA  ASN A   6     -26.189 -10.994  -3.883  1.00  0.00     0.201 C 
BRANCH  43  44
ATOM     44  C   ASN A   6     -27.052 -11.522  -4.997  1.00  0.00     0.326 C 
ATOM     45  O   ASN A   6     -27.151 -10.892  -6.084  1.00  0.00    -0.250 OA
BRANCH  44  46
ATOM     46  OXT ASN A   6     -27.773 -12.698  -4.811  1.00  0.00    -0.480 OA
ATOM     47  H   UNL     1     -28.370 -13.063  -5.543  1.00  0.00     0.296 HD
ENDBRANCH  44  46
ENDBRANCH  43  44
BRANCH  43  48
ATOM     48  CB  ASN A   6     -26.930  -9.934  -3.062  1.00  0.00     0.136 C 
BRANCH  48  49
ATOM     49  CG  ASN A   6     -28.019 -10.549  -2.252  1.00  0.00     0.220 C 
ATOM     50  ND2 ASN A   6     -27.701 -11.241  -1.053  1.00  0.00    -0.370 N 
ATOM     51  OD1 ASN A   6     -29.213 -10.484  -2.643  1.00  0.00    -0.275 OA
ATOM     52  H   UNL     1     -28.456 -11.688  -0.487  1.00  0.00     0.159 HD
ATOM     53  H   UNL     1     -26.713 -11.314  -0.724  1.00  0.00     0.159 HD
ENDBRANCH  48  49
ENDBRANCH  43  48
ENDBRANCH  40  43
ENDBRANCH  38  39
BRANCH  38  54
ATOM     54  CB  ARG A   5     -22.652 -10.515  -6.915  1.00  0.00     0.037 C 
BRANCH  54  55
ATOM     55  CG  ARG A   5     -21.461  -9.721  -7.460  1.00  0.00     0.024 C 
BRANCH  55  56
ATOM     56  CD  ARG A   5     -21.604  -9.478  -8.964  1.00  0.00     0.116 C 
BRANCH  56  57
ATOM     57  NE  ARG A   5     -21.185  -8.117  -9.283  1.00  0.00    -0.357 N 
ATOM     58  CZ  ARG A   5     -20.070  -7.777 -10.104  1.00  0.00     0.185 C 
ATOM     59  NH2 ARG A   5     -19.201  -8.780 -10.625  1.00  0.00    -0.370 N 
ATOM     60  H   UNL     1     -21.763  -7.336  -8.897  1.00  0.00     0.163 HD
ATOM     61  H   UNL     1     -18.493  -8.529 -11.351  1.00  0.00     0.159 HD
ATOM     62  H   UNL     1     -19.119  -9.728 -10.203  1.00  0.00     0.159 HD
BRANCH  58  63
ATOM     63  NH1 ARG A   5     -19.849  -6.531 -10.376  1.00  0.00    -0.270 NA
ATOM     64  H   UNL     1     -19.044  -6.231 -10.971  1.00  0.00     0.191 HD
ENDBRANCH  58  63
ENDBRANCH  56  57
ENDBRANCH  55  56
ENDBRANCH  54  55
ENDBRANCH  38  54
ENDBRANCH  35  38
ENDBRANCH  33  34
ENDBRANCH   3  33
TORSDOF 26
