REMARK SMILES CC(C)C[C@H](NC(=O)[C@H](Cc1ccccc1)NC(=O)[C@@H](N)CO)C(=O)N[C@@H](CCCNC(=N)N)C(=O)N[C@@H](CCCNC(=N)N)C(=O)N[C@@H](CCCNC(=N)N)C(=O)O
REMARK SMILES IDX 35 1 36 2 37 3 27 5 26 6 24 7 25 8 5 10 6 11 7 12 8 13 9 15
REMARK SMILES IDX 17 16 18 17 19 18 20 20 21 21 22 24 23 25 10 27 11 28 12 29
REMARK SMILES IDX 16 30 13 31 15 32 14 33 4 34 2 35 1 36 3 37 28 38 29 39
REMARK SMILES IDX 30 40 31 41 32 42 34 43 33 47 38 49 46 50 48 51 47 52 49 54
REMARK SMILES IDX 57 55 58 56 59 57 50 59 51 60 52 61 53 62 54 63 56 64 55 68
REMARK SMILES IDX 39 70 40 71 41 72 42 73 43 74 45 75 44 79
REMARK H PARENT 37 4 26 9 6 14 17 19 21 22 21 23 23 26 31 44 34 45 34 46 33 48
REMARK H PARENT 48 53 59 58 53 65 56 66 56 67 55 69 42 76 45 77 45 78 44 80
ROOT
ATOM      1  C   ARG A   4     -21.172 -11.058  -3.463  1.00  0.00     0.243 C 
ATOM      2  O   ARG A   4     -21.974 -10.546  -2.635  1.00  0.00    -0.273 OA
ATOM      3  N   ARG A   5     -21.505 -11.138  -4.842  1.00  0.00    -0.343 N 
ATOM      4  H   UNL     1     -21.064 -11.899  -5.404  1.00  0.00     0.164 HD
ENDROOT
BRANCH   1   5
ATOM      5  CA  ARG A   4     -19.822 -11.545  -3.051  1.00  0.00     0.171 C 
BRANCH   5   6
ATOM      6  N   ARG A   4     -18.846 -10.584  -3.519  1.00  0.00    -0.343 N 
ATOM      7  C   LEU A   3     -18.385 -10.546  -4.865  1.00  0.00     0.243 C 
ATOM      8  O   LEU A   3     -18.750 -11.405  -5.712  1.00  0.00    -0.273 OA
ATOM      9  H   UNL     1     -18.588  -9.800  -2.876  1.00  0.00     0.164 HD
BRANCH   7  10
ATOM     10  CA  LEU A   3     -17.453  -9.454  -5.243  1.00  0.00     0.171 C 
BRANCH  10  11
ATOM     11  N   LEU A   3     -16.215 -10.020  -5.731  1.00  0.00    -0.343 N 
ATOM     12  C   PHE A   2     -15.252 -10.548  -4.827  1.00  0.00     0.243 C 
ATOM     13  O   PHE A   2     -15.473 -10.577  -3.585  1.00  0.00    -0.273 OA
ATOM     14  H   UNL     1     -16.038 -10.070  -6.761  1.00  0.00     0.164 HD
BRANCH  12  15
ATOM     15  CA  PHE A   2     -13.974 -11.061  -5.385  1.00  0.00     0.175 C 
BRANCH  15  16
ATOM     16  N   PHE A   2     -12.855 -10.485  -4.659  1.00  0.00    -0.343 N 
ATOM     17  C   SER A   1     -12.596  -9.083  -4.702  1.00  0.00     0.239 C 
ATOM     18  O   SER A   1     -13.355  -8.308  -5.349  1.00  0.00    -0.273 OA
ATOM     19  H   UNL     1     -12.220 -11.103  -4.104  1.00  0.00     0.164 HD
BRANCH  17  20
ATOM     20  CA  SER A   1     -11.428  -8.546  -3.931  1.00  0.00     0.167 C 
BRANCH  20  21
ATOM     21  N   SER A   1     -10.863  -7.380  -4.610  1.00  0.00    -0.318 NA
ATOM     22  H   UNL     1     -10.541  -7.676  -5.560  1.00  0.00     0.119 HD
ATOM     23  H   UNL     1     -10.001  -7.089  -4.094  1.00  0.00     0.119 HD
ENDBRANCH  20  21
BRANCH  20  24
ATOM     24  CB  SER A   1     -11.840  -8.203  -2.486  1.00  0.00     0.184 C 
BRANCH  24  25
ATOM     25  OG  SER A   1     -12.064  -6.827  -2.332  1.00  0.00    -0.394 OA
ATOM     26  H   UNL     1     -12.954  -6.643  -2.733  1.00  0.00     0.210 HD
ENDBRANCH  24  25
ENDBRANCH  20  24
ENDBRANCH  17  20
ENDBRANCH  15  16
BRANCH  15  27
ATOM     27  CB  PHE A   2     -13.963 -12.597  -5.327  1.00  0.00     0.070 C 
BRANCH  27  28
ATOM     28  CG  PHE A   2     -12.882 -13.200  -6.184  1.00  0.00    -0.045 A 
ATOM     29  CD1 PHE A   2     -12.722 -12.808  -7.527  1.00  0.00     0.004 A 
ATOM     30  CD2 PHE A   2     -12.091 -14.244  -5.683  1.00  0.00     0.004 A 
ATOM     31  CE1 PHE A   2     -11.747 -13.400  -8.324  1.00  0.00     0.000 A 
ATOM     32  CE2 PHE A   2     -11.133 -14.854  -6.496  1.00  0.00     0.000 A 
ATOM     33  CZ  PHE A   2     -10.954 -14.425  -7.812  1.00  0.00     0.000 A 
ENDBRANCH  27  28
ENDBRANCH  15  27
ENDBRANCH  12  15
ENDBRANCH  10  11
BRANCH  10  34
ATOM     34  CB  LEU A   3     -18.098  -8.524  -6.277  1.00  0.00     0.038 C 
BRANCH  34  35
ATOM     35  CG  LEU A   3     -17.543  -7.089  -6.223  1.00  0.00    -0.015 C 
ATOM     36  CD1 LEU A   3     -18.188  -6.262  -7.337  1.00  0.00     0.007 C 
ATOM     37  CD2 LEU A   3     -17.813  -6.422  -4.860  1.00  0.00     0.007 C 
ENDBRANCH  34  35
ENDBRANCH  10  34
ENDBRANCH   7  10
ENDBRANCH   5   6
BRANCH   5  38
ATOM     38  CB  ARG A   4     -19.667 -11.702  -1.528  1.00  0.00     0.037 C 
BRANCH  38  39
ATOM     39  CG  ARG A   4     -20.321 -12.968  -0.970  1.00  0.00     0.024 C 
BRANCH  39  40
ATOM     40  CD  ARG A   4     -19.607 -14.245  -1.440  1.00  0.00     0.116 C 
BRANCH  40  41
ATOM     41  NE  ARG A   4     -20.075 -15.408  -0.682  1.00  0.00    -0.357 N 
ATOM     42  CZ  ARG A   4     -19.573 -16.740  -0.890  1.00  0.00     0.185 C 
ATOM     43  NH2 ARG A   4     -20.088 -17.814  -0.102  1.00  0.00    -0.370 N 
ATOM     44  H   UNL     1     -20.816 -15.280   0.044  1.00  0.00     0.163 HD
ATOM     45  H   UNL     1     -19.737 -18.788  -0.237  1.00  0.00     0.159 HD
ATOM     46  H   UNL     1     -20.821 -17.639   0.620  1.00  0.00     0.159 HD
BRANCH  42  47
ATOM     47  NH1 ARG A   4     -18.662 -16.993  -1.779  1.00  0.00    -0.270 NA
ATOM     48  H   UNL     1     -18.238 -16.264  -2.393  1.00  0.00     0.191 HD
ENDBRANCH  42  47
ENDBRANCH  40  41
ENDBRANCH  39  40
ENDBRANCH  38  39
ENDBRANCH   5  38
ENDBRANCH   1   5
BRANCH   3  49
ATOM     49  CA  ARG A   5     -22.680 -10.495  -5.388  1.00  0.00     0.171 C 
BRANCH  49  50
ATOM     50  C   ARG A   5     -23.897 -11.194  -4.886  1.00  0.00     0.243 C 
ATOM     51  N   ARG A   6     -24.984 -10.406  -4.429  1.00  0.00    -0.341 N 
ATOM     52  O   ARG A   5     -23.963 -12.455  -4.870  1.00  0.00    -0.273 OA
ATOM     53  H   UNL     1     -24.938  -9.367  -4.545  1.00  0.00     0.164 HD
BRANCH  51  54
ATOM     54  CA  ARG A   6     -26.186 -11.009  -3.881  1.00  0.00     0.192 C 
BRANCH  54  55
ATOM     55  C   ARG A   6     -27.049 -11.528  -5.001  1.00  0.00     0.326 C 
ATOM     56  O   ARG A   6     -27.154 -10.884  -6.079  1.00  0.00    -0.250 OA
BRANCH  55  57
ATOM     57  OXT ARG A   6     -27.747 -12.720  -4.836  1.00  0.00    -0.480 OA
ATOM     58  H   UNL     1     -28.338 -13.082  -5.574  1.00  0.00     0.296 HD
ENDBRANCH  55  57
ENDBRANCH  54  55
BRANCH  54  59
ATOM     59  CB  ARG A   6     -26.925  -9.966  -3.032  1.00  0.00     0.039 C 
BRANCH  59  60
ATOM     60  CG  ARG A   6     -28.079 -10.557  -2.214  1.00  0.00     0.024 C 
BRANCH  60  61
ATOM     61  CD  ARG A   6     -27.605 -11.411  -1.028  1.00  0.00     0.116 C 
BRANCH  61  62
ATOM     62  NE  ARG A   6     -28.736 -11.812  -0.190  1.00  0.00    -0.357 N 
ATOM     63  CZ  ARG A   6     -28.561 -12.607   0.990  1.00  0.00     0.185 C 
ATOM     64  NH2 ARG A   6     -29.700 -12.973   1.773  1.00  0.00    -0.370 N 
ATOM     65  H   UNL     1     -29.706 -11.520  -0.451  1.00  0.00     0.163 HD
ATOM     66  H   UNL     1     -30.657 -12.665   1.490  1.00  0.00     0.159 HD
ATOM     67  H   UNL     1     -29.595 -13.552   2.635  1.00  0.00     0.159 HD
BRANCH  63  68
ATOM     68  NH1 ARG A   6     -27.376 -12.994   1.348  1.00  0.00    -0.270 NA
ATOM     69  H   UNL     1     -27.222 -13.573   2.203  1.00  0.00     0.191 HD
ENDBRANCH  63  68
ENDBRANCH  61  62
ENDBRANCH  60  61
ENDBRANCH  59  60
ENDBRANCH  54  59
ENDBRANCH  51  54
ENDBRANCH  49  50
BRANCH  49  70
ATOM     70  CB  ARG A   5     -22.650 -10.517  -6.916  1.00  0.00     0.037 C 
BRANCH  70  71
ATOM     71  CG  ARG A   5     -21.462  -9.717  -7.459  1.00  0.00     0.024 C 
BRANCH  71  72
ATOM     72  CD  ARG A   5     -21.602  -9.477  -8.963  1.00  0.00     0.116 C 
BRANCH  72  73
ATOM     73  NE  ARG A   5     -21.186  -8.116  -9.284  1.00  0.00    -0.357 N 
ATOM     74  CZ  ARG A   5     -20.072  -7.777 -10.106  1.00  0.00     0.185 C 
ATOM     75  NH2 ARG A   5     -19.198  -8.780 -10.616  1.00  0.00    -0.370 N 
ATOM     76  H   UNL     1     -21.765  -7.335  -8.899  1.00  0.00     0.163 HD
ATOM     77  H   UNL     1     -18.499  -8.537 -11.353  1.00  0.00     0.159 HD
ATOM     78  H   UNL     1     -19.093  -9.712 -10.162  1.00  0.00     0.159 HD
BRANCH  74  79
ATOM     79  NH1 ARG A   5     -19.856  -6.531 -10.387  1.00  0.00    -0.270 NA
ATOM     80  H   UNL     1     -19.051  -6.233 -10.981  1.00  0.00     0.191 HD
ENDBRANCH  74  79
ENDBRANCH  72  73
ENDBRANCH  71  72
ENDBRANCH  70  71
ENDBRANCH  49  70
ENDBRANCH   3  49
TORSDOF 34
