REMARK SMILES CC(C)C[C@H](NC(=O)[C@H](CO)NC(=O)[C@H](Cc1ccccc1)NC(=O)[C@H](C)N)C(=O)N[C@@H](CCCNC(=N)N)C(=O)N[C@@H](CC(N)=O)C(=O)O
REMARK SMILES IDX 5 1 6 2 7 3 8 4 9 6 12 7 13 8 14 9 15 11 23 12 24 13 25 14
REMARK SMILES IDX 26 16 27 17 28 18 16 21 17 22 18 23 22 24 19 25 21 26 20 27
REMARK SMILES IDX 10 28 11 29 29 31 31 32 30 33 32 35 40 36 42 37 41 38 43 40
REMARK SMILES IDX 48 41 49 42 50 43 44 45 45 46 46 47 47 48 33 51 34 52 35 53
REMARK SMILES IDX 36 54 37 55 39 56 38 60 4 62 2 63 1 64 3 65
REMARK H PARENT 6 5 12 10 23 15 28 19 28 20 11 30 31 34 42 39 50 44 46 49
REMARK H PARENT 46 50 36 57 39 58 39 59 38 61
ROOT
ATOM      1  CA  LEU A   4     -19.812 -11.536  -3.055  1.00  0.00     0.171 C 
ENDROOT
BRANCH   1   2
ATOM      2  N   LEU A   4     -18.843 -10.566  -3.526  1.00  0.00    -0.342 N 
ATOM      3  C   SER A   3     -18.394 -10.517  -4.875  1.00  0.00     0.245 C 
ATOM      4  O   SER A   3     -18.751 -11.389  -5.714  1.00  0.00    -0.273 OA
ATOM      5  H   UNL     1     -18.567  -9.789  -2.882  1.00  0.00     0.164 HD
BRANCH   3   6
ATOM      6  CA  SER A   3     -17.455  -9.426  -5.263  1.00  0.00     0.197 C 
BRANCH   6   7
ATOM      7  N   SER A   3     -16.216 -10.014  -5.731  1.00  0.00    -0.340 N 
ATOM      8  C   PHE A   2     -15.256 -10.543  -4.824  1.00  0.00     0.243 C 
ATOM      9  O   PHE A   2     -15.480 -10.571  -3.583  1.00  0.00    -0.273 OA
ATOM     10  H   UNL     1     -16.040 -10.079  -6.760  1.00  0.00     0.164 HD
BRANCH   8  11
ATOM     11  CA  PHE A   2     -13.977 -11.062  -5.381  1.00  0.00     0.175 C 
BRANCH  11  12
ATOM     12  N   PHE A   2     -12.855 -10.488  -4.658  1.00  0.00    -0.343 N 
ATOM     13  C   ALA A   1     -12.593  -9.087  -4.704  1.00  0.00     0.237 C 
ATOM     14  O   ALA A   1     -13.351  -8.313  -5.353  1.00  0.00    -0.273 OA
ATOM     15  H   UNL     1     -12.219 -11.107  -4.104  1.00  0.00     0.164 HD
BRANCH  13  16
ATOM     16  CA  ALA A   1     -11.435  -8.546  -3.923  1.00  0.00     0.138 C 
ATOM     17  CB  ALA A   1     -11.886  -8.213  -2.501  1.00  0.00     0.035 C 
BRANCH  16  18
ATOM     18  N   ALA A   1     -10.893  -7.358  -4.578  1.00  0.00    -0.320 NA
ATOM     19  H   UNL     1     -10.539  -7.637  -5.523  1.00  0.00     0.119 HD
ATOM     20  H   UNL     1     -10.053  -7.039  -4.040  1.00  0.00     0.119 HD
ENDBRANCH  16  18
ENDBRANCH  13  16
ENDBRANCH  11  12
BRANCH  11  21
ATOM     21  CB  PHE A   2     -13.966 -12.597  -5.326  1.00  0.00     0.070 C 
BRANCH  21  22
ATOM     22  CG  PHE A   2     -12.883 -13.200  -6.183  1.00  0.00    -0.045 A 
ATOM     23  CD1 PHE A   2     -12.723 -12.807  -7.526  1.00  0.00     0.004 A 
ATOM     24  CD2 PHE A   2     -12.091 -14.244  -5.682  1.00  0.00     0.004 A 
ATOM     25  CE1 PHE A   2     -11.747 -13.399  -8.324  1.00  0.00     0.000 A 
ATOM     26  CE2 PHE A   2     -11.133 -14.853  -6.495  1.00  0.00     0.000 A 
ATOM     27  CZ  PHE A   2     -10.955 -14.424  -7.811  1.00  0.00     0.000 A 
ENDBRANCH  21  22
ENDBRANCH  11  21
ENDBRANCH   8  11
ENDBRANCH   6   7
BRANCH   6  28
ATOM     28  CB  SER A   3     -18.072  -8.532  -6.337  1.00  0.00     0.191 C 
BRANCH  28  29
ATOM     29  OG  SER A   3     -17.198  -7.487  -6.672  1.00  0.00    -0.394 OA
ATOM     30  H   UNL     1     -17.251  -6.824  -5.935  1.00  0.00     0.210 HD
ENDBRANCH  28  29
ENDBRANCH   6  28
ENDBRANCH   3   6
ENDBRANCH   1   2
BRANCH   1  31
ATOM     31  C   LEU A   4     -21.168 -11.059  -3.463  1.00  0.00     0.243 C 
ATOM     32  N   ARG A   5     -21.505 -11.141  -4.842  1.00  0.00    -0.343 N 
ATOM     33  O   LEU A   4     -21.970 -10.549  -2.634  1.00  0.00    -0.273 OA
ATOM     34  H   UNL     1     -21.063 -11.903  -5.404  1.00  0.00     0.164 HD
BRANCH  32  35
ATOM     35  CA  ARG A   5     -22.679 -10.496  -5.386  1.00  0.00     0.171 C 
BRANCH  35  36
ATOM     36  C   ARG A   5     -23.897 -11.194  -4.885  1.00  0.00     0.243 C 
ATOM     37  N   ASN A   6     -24.982 -10.402  -4.433  1.00  0.00    -0.341 N 
ATOM     38  O   ARG A   5     -23.966 -12.454  -4.867  1.00  0.00    -0.273 OA
ATOM     39  H   UNL     1     -24.931  -9.364  -4.552  1.00  0.00     0.164 HD
BRANCH  37  40
ATOM     40  CA  ASN A   6     -26.190 -10.994  -3.883  1.00  0.00     0.201 C 
BRANCH  40  41
ATOM     41  C   ASN A   6     -27.053 -11.522  -4.997  1.00  0.00     0.326 C 
ATOM     42  O   ASN A   6     -27.151 -10.892  -6.084  1.00  0.00    -0.250 OA
BRANCH  41  43
ATOM     43  OXT ASN A   6     -27.773 -12.698  -4.811  1.00  0.00    -0.480 OA
ATOM     44  H   UNL     1     -28.370 -13.063  -5.543  1.00  0.00     0.296 HD
ENDBRANCH  41  43
ENDBRANCH  40  41
BRANCH  40  45
ATOM     45  CB  ASN A   6     -26.930  -9.934  -3.062  1.00  0.00     0.136 C 
BRANCH  45  46
ATOM     46  CG  ASN A   6     -28.019 -10.549  -2.252  1.00  0.00     0.220 C 
ATOM     47  ND2 ASN A   6     -27.701 -11.241  -1.053  1.00  0.00    -0.370 N 
ATOM     48  OD1 ASN A   6     -29.213 -10.484  -2.642  1.00  0.00    -0.275 OA
ATOM     49  H   UNL     1     -26.713 -11.314  -0.724  1.00  0.00     0.159 HD
ATOM     50  H   UNL     1     -28.456 -11.688  -0.487  1.00  0.00     0.159 HD
ENDBRANCH  45  46
ENDBRANCH  40  45
ENDBRANCH  37  40
ENDBRANCH  35  36
BRANCH  35  51
ATOM     51  CB  ARG A   5     -22.650 -10.515  -6.914  1.00  0.00     0.037 C 
BRANCH  51  52
ATOM     52  CG  ARG A   5     -21.456  -9.724  -7.458  1.00  0.00     0.024 C 
BRANCH  52  53
ATOM     53  CD  ARG A   5     -21.601  -9.480  -8.962  1.00  0.00     0.116 C 
BRANCH  53  54
ATOM     54  NE  ARG A   5     -21.189  -8.118  -9.280  1.00  0.00    -0.357 N 
ATOM     55  CZ  ARG A   5     -20.072  -7.775 -10.101  1.00  0.00     0.185 C 
ATOM     56  NH2 ARG A   5     -19.200  -8.775 -10.617  1.00  0.00    -0.370 N 
ATOM     57  H   UNL     1     -21.775  -7.343  -8.892  1.00  0.00     0.163 HD
ATOM     58  H   UNL     1     -18.495  -8.517 -11.343  1.00  0.00     0.159 HD
ATOM     59  H   UNL     1     -19.100  -9.713 -10.177  1.00  0.00     0.159 HD
BRANCH  55  60
ATOM     60  NH1 ARG A   5     -19.842  -6.533 -10.385  1.00  0.00    -0.270 NA
ATOM     61  H   UNL     1     -20.452  -5.762 -10.031  1.00  0.00     0.191 HD
ENDBRANCH  55  60
ENDBRANCH  53  54
ENDBRANCH  52  53
ENDBRANCH  51  52
ENDBRANCH  35  51
ENDBRANCH  32  35
ENDBRANCH   1  31
BRANCH   1  62
ATOM     62  CB  LEU A   4     -19.649 -11.688  -1.535  1.00  0.00     0.038 C 
BRANCH  62  63
ATOM     63  CG  LEU A   4     -20.294 -12.953  -0.947  1.00  0.00    -0.015 C 
ATOM     64  CD1 LEU A   4     -19.611 -14.230  -1.463  1.00  0.00     0.007 C 
ATOM     65  CD2 LEU A   4     -20.194 -12.897   0.582  1.00  0.00     0.007 C 
ENDBRANCH  62  63
ENDBRANCH   1  62
TORSDOF 26
