REMARK SMILES CC(C)C[C@H](NC(=O)[C@H](CCCNC(=N)N)NC(=O)[C@@H](N)CO)C(=O)N[C@@H](C)C(=O)N[C@@H](CCCNC(=N)N)C(=O)N[C@@H](CC(N)=O)C(=O)O
REMARK SMILES IDX 24 1 25 2 26 3 5 5 6 6 7 7 8 8 9 10 17 11 18 12 19 13 20 15
REMARK SMILES IDX 21 16 22 19 23 20 10 22 11 23 12 24 13 25 14 26 16 27 15 31
REMARK SMILES IDX 4 33 2 34 1 35 3 36 27 37 28 38 29 39 31 40 30 41 32 43
REMARK SMILES IDX 40 44 42 45 41 46 43 48 48 49 49 50 50 51 44 53 45 54 46 55
REMARK SMILES IDX 47 56 33 59 34 60 35 61 36 62 37 63 39 64 38 68
REMARK H PARENT 26 4 6 9 17 14 21 17 21 18 23 21 13 28 16 29 16 30 15 32 31 42
REMARK H PARENT 42 47 50 52 46 57 46 58 36 65 39 66 39 67 38 69
ROOT
ATOM      1  C   LEU A   3     -18.384 -10.556  -4.861  1.00  0.00     0.243 C 
ATOM      2  O   LEU A   3     -18.758 -11.406  -5.714  1.00  0.00    -0.273 OA
ATOM      3  N   ALA A   4     -18.823 -10.622  -3.507  1.00  0.00    -0.343 N 
ATOM      4  H   UNL     1     -18.481  -9.899  -2.832  1.00  0.00     0.164 HD
ENDROOT
BRANCH   1   5
ATOM      5  CA  LEU A   3     -17.453  -9.459  -5.241  1.00  0.00     0.171 C 
BRANCH   5   6
ATOM      6  N   LEU A   3     -16.213 -10.022  -5.734  1.00  0.00    -0.343 N 
ATOM      7  C   ARG A   2     -15.249 -10.555  -4.835  1.00  0.00     0.243 C 
ATOM      8  O   ARG A   2     -15.466 -10.581  -3.592  1.00  0.00    -0.273 OA
ATOM      9  H   UNL     1     -16.034 -10.062  -6.763  1.00  0.00     0.164 HD
BRANCH   7  10
ATOM     10  CA  ARG A   2     -13.970 -11.075  -5.396  1.00  0.00     0.171 C 
BRANCH  10  11
ATOM     11  N   ARG A   2     -12.852 -10.485  -4.675  1.00  0.00    -0.343 N 
ATOM     12  C   SER A   1     -12.603  -9.082  -4.715  1.00  0.00     0.239 C 
ATOM     13  O   SER A   1     -13.368  -8.314  -5.361  1.00  0.00    -0.273 OA
ATOM     14  H   UNL     1     -12.223 -11.092  -4.101  1.00  0.00     0.164 HD
BRANCH  12  15
ATOM     15  CA  SER A   1     -11.441  -8.536  -3.937  1.00  0.00     0.167 C 
BRANCH  15  16
ATOM     16  N   SER A   1     -10.847  -7.379  -4.609  1.00  0.00    -0.318 NA
ATOM     17  H   UNL     1     -11.575  -6.650  -4.792  1.00  0.00     0.119 HD
ATOM     18  H   UNL     1     -10.477  -7.686  -5.538  1.00  0.00     0.119 HD
ENDBRANCH  15  16
BRANCH  15  19
ATOM     19  CB  SER A   1     -11.847  -8.201  -2.487  1.00  0.00     0.184 C 
BRANCH  19  20
ATOM     20  OG  SER A   1     -12.054  -6.823  -2.318  1.00  0.00    -0.394 OA
ATOM     21  H   UNL     1     -11.171  -6.420  -2.108  1.00  0.00     0.210 HD
ENDBRANCH  19  20
ENDBRANCH  15  19
ENDBRANCH  12  15
ENDBRANCH  10  11
BRANCH  10  22
ATOM     22  CB  ARG A   2     -13.950 -12.607  -5.307  1.00  0.00     0.037 C 
BRANCH  22  23
ATOM     23  CG  ARG A   2     -12.850 -13.245  -6.171  1.00  0.00     0.024 C 
BRANCH  23  24
ATOM     24  CD  ARG A   2     -13.065 -13.107  -7.689  1.00  0.00     0.116 C 
BRANCH  24  25
ATOM     25  NE  ARG A   2     -14.409 -13.525  -8.089  1.00  0.00    -0.357 N 
ATOM     26  CZ  ARG A   2     -14.833 -14.896  -8.112  1.00  0.00     0.185 C 
ATOM     27  NH2 ARG A   2     -16.185 -15.212  -8.451  1.00  0.00    -0.370 N 
ATOM     28  H   UNL     1     -15.082 -12.788  -8.398  1.00  0.00     0.163 HD
ATOM     29  H   UNL     1     -16.865 -14.451  -8.672  1.00  0.00     0.159 HD
ATOM     30  H   UNL     1     -16.514 -16.202  -8.478  1.00  0.00     0.159 HD
BRANCH  26  31
ATOM     31  NH1 ARG A   2     -13.995 -15.845  -7.834  1.00  0.00    -0.270 NA
ATOM     32  H   UNL     1     -14.279 -16.850  -7.847  1.00  0.00     0.191 HD
ENDBRANCH  26  31
ENDBRANCH  24  25
ENDBRANCH  23  24
ENDBRANCH  22  23
ENDBRANCH  10  22
ENDBRANCH   7  10
ENDBRANCH   5   6
BRANCH   5  33
ATOM     33  CB  LEU A   3     -18.101  -8.528  -6.272  1.00  0.00     0.038 C 
BRANCH  33  34
ATOM     34  CG  LEU A   3     -17.543  -7.093  -6.222  1.00  0.00    -0.015 C 
ATOM     35  CD1 LEU A   3     -18.189  -6.265  -7.336  1.00  0.00     0.007 C 
ATOM     36  CD2 LEU A   3     -17.812  -6.423  -4.860  1.00  0.00     0.007 C 
ENDBRANCH  33  34
ENDBRANCH   5  33
ENDBRANCH   1   5
BRANCH   3  37
ATOM     37  CA  ALA A   4     -19.828 -11.562  -3.046  1.00  0.00     0.168 C 
ATOM     38  CB  ALA A   4     -19.719 -11.727  -1.531  1.00  0.00     0.041 C 
BRANCH  37  39
ATOM     39  C   ALA A   4     -21.168 -11.055  -3.465  1.00  0.00     0.242 C 
ATOM     40  N   ARG A   5     -21.503 -11.138  -4.843  1.00  0.00    -0.343 N 
ATOM     41  O   ALA A   4     -21.969 -10.540  -2.637  1.00  0.00    -0.273 OA
ATOM     42  H   UNL     1     -21.067 -11.905  -5.401  1.00  0.00     0.164 HD
BRANCH  40  43
ATOM     43  CA  ARG A   5     -22.679 -10.496  -5.388  1.00  0.00     0.171 C 
BRANCH  43  44
ATOM     44  C   ARG A   5     -23.897 -11.194  -4.886  1.00  0.00     0.243 C 
ATOM     45  N   ASN A   6     -24.982 -10.402  -4.433  1.00  0.00    -0.341 N 
ATOM     46  O   ARG A   5     -23.965 -12.454  -4.868  1.00  0.00    -0.273 OA
ATOM     47  H   UNL     1     -24.931  -9.364  -4.552  1.00  0.00     0.164 HD
BRANCH  45  48
ATOM     48  CA  ASN A   6     -26.189 -10.994  -3.883  1.00  0.00     0.201 C 
BRANCH  48  49
ATOM     49  C   ASN A   6     -27.052 -11.522  -4.997  1.00  0.00     0.326 C 
ATOM     50  O   ASN A   6     -27.151 -10.892  -6.084  1.00  0.00    -0.250 OA
BRANCH  49  51
ATOM     51  OXT ASN A   6     -27.773 -12.698  -4.811  1.00  0.00    -0.480 OA
ATOM     52  H   UNL     1     -28.370 -13.063  -5.543  1.00  0.00     0.296 HD
ENDBRANCH  49  51
ENDBRANCH  48  49
BRANCH  48  53
ATOM     53  CB  ASN A   6     -26.930  -9.934  -3.062  1.00  0.00     0.136 C 
BRANCH  53  54
ATOM     54  CG  ASN A   6     -28.019 -10.549  -2.252  1.00  0.00     0.220 C 
ATOM     55  ND2 ASN A   6     -27.701 -11.241  -1.053  1.00  0.00    -0.370 N 
ATOM     56  OD1 ASN A   6     -29.213 -10.484  -2.643  1.00  0.00    -0.275 OA
ATOM     57  H   UNL     1     -28.456 -11.688  -0.487  1.00  0.00     0.159 HD
ATOM     58  H   UNL     1     -26.713 -11.314  -0.724  1.00  0.00     0.159 HD
ENDBRANCH  53  54
ENDBRANCH  48  53
ENDBRANCH  45  48
ENDBRANCH  43  44
BRANCH  43  59
ATOM     59  CB  ARG A   5     -22.649 -10.518  -6.916  1.00  0.00     0.037 C 
BRANCH  59  60
ATOM     60  CG  ARG A   5     -21.461  -9.719  -7.459  1.00  0.00     0.024 C 
BRANCH  60  61
ATOM     61  CD  ARG A   5     -21.602  -9.480  -8.963  1.00  0.00     0.116 C 
BRANCH  61  62
ATOM     62  NE  ARG A   5     -21.190  -8.117  -9.282  1.00  0.00    -0.357 N 
ATOM     63  CZ  ARG A   5     -20.075  -7.775 -10.105  1.00  0.00     0.185 C 
ATOM     64  NH2 ARG A   5     -19.200  -8.774 -10.616  1.00  0.00    -0.370 N 
ATOM     65  H   UNL     1     -21.775  -7.342  -8.894  1.00  0.00     0.163 HD
ATOM     66  H   UNL     1     -19.096  -9.710 -10.170  1.00  0.00     0.159 HD
ATOM     67  H   UNL     1     -18.493  -8.518 -11.342  1.00  0.00     0.159 HD
BRANCH  63  68
ATOM     68  NH1 ARG A   5     -19.847  -6.533 -10.392  1.00  0.00    -0.270 NA
ATOM     69  H   UNL     1     -20.457  -5.762 -10.039  1.00  0.00     0.191 HD
ENDBRANCH  63  68
ENDBRANCH  61  62
ENDBRANCH  60  61
ENDBRANCH  59  60
ENDBRANCH  43  59
ENDBRANCH  40  43
ENDBRANCH  37  39
ENDBRANCH   3  37
TORSDOF 29
