REMARK SMILES CC(C)C[C@H](NC(=O)[C@@H](NC(=O)[C@@H](N)CO)C(C)C)C(=O)N[C@@H](C)C(=O)N[C@@H](CCCNC(=N)N)C(=O)N[C@@H](CC(N)=O)C(=O)O
REMARK SMILES IDX 20 1 21 2 22 3 5 5 6 6 7 7 8 8 9 10 10 11 11 12 12 13 13 15
REMARK SMILES IDX 14 16 15 19 16 20 17 22 18 23 19 24 4 25 2 26 1 27 3 28
REMARK SMILES IDX 23 29 24 30 25 31 27 32 26 33 28 35 36 36 38 37 37 38 39 40
REMARK SMILES IDX 44 41 45 42 46 43 40 45 41 46 42 47 43 48 29 51 30 52 31 53
REMARK SMILES IDX 32 54 33 55 35 56 34 60
REMARK H PARENT 22 4 6 9 10 14 14 17 14 18 16 21 27 34 38 39 46 44 42 49 42 50
REMARK H PARENT 32 57 35 58 35 59 34 61
ROOT
ATOM      1  C   LEU A   3     -18.384 -10.556  -4.862  1.00  0.00     0.243 C 
ATOM      2  O   LEU A   3     -18.758 -11.406  -5.714  1.00  0.00    -0.273 OA
ATOM      3  N   ALA A   4     -18.823 -10.621  -3.507  1.00  0.00    -0.343 N 
ATOM      4  H   UNL     1     -18.479  -9.899  -2.833  1.00  0.00     0.164 HD
ENDROOT
BRANCH   1   5
ATOM      5  CA  LEU A   3     -17.452  -9.459  -5.243  1.00  0.00     0.171 C 
BRANCH   5   6
ATOM      6  N   LEU A   3     -16.210 -10.023  -5.733  1.00  0.00    -0.343 N 
ATOM      7  C   VAL A   2     -15.249 -10.550  -4.828  1.00  0.00     0.243 C 
ATOM      8  O   VAL A   2     -15.467 -10.549  -3.584  1.00  0.00    -0.273 OA
ATOM      9  H   UNL     1     -16.031 -10.073  -6.762  1.00  0.00     0.164 HD
BRANCH   7  10
ATOM     10  CA  VAL A   2     -13.970 -11.092  -5.375  1.00  0.00     0.173 C 
BRANCH  10  11
ATOM     11  N   VAL A   2     -12.841 -10.490  -4.677  1.00  0.00    -0.343 N 
ATOM     12  C   SER A   1     -12.600  -9.083  -4.713  1.00  0.00     0.239 C 
ATOM     13  O   SER A   1     -13.369  -8.316  -5.356  1.00  0.00    -0.273 OA
ATOM     14  H   UNL     1     -12.148 -11.091  -4.181  1.00  0.00     0.164 HD
BRANCH  12  15
ATOM     15  CA  SER A   1     -11.441  -8.534  -3.935  1.00  0.00     0.167 C 
BRANCH  15  16
ATOM     16  N   SER A   1     -10.856  -7.387  -4.630  1.00  0.00    -0.318 NA
ATOM     17  H   UNL     1     -11.542  -6.599  -4.687  1.00  0.00     0.119 HD
ATOM     18  H   UNL     1     -10.020  -7.054  -4.097  1.00  0.00     0.119 HD
ENDBRANCH  15  16
BRANCH  15  19
ATOM     19  CB  SER A   1     -11.848  -8.202  -2.483  1.00  0.00     0.184 C 
BRANCH  19  20
ATOM     20  OG  SER A   1     -12.062  -6.825  -2.310  1.00  0.00    -0.394 OA
ATOM     21  H   UNL     1     -11.200  -6.429  -2.016  1.00  0.00     0.210 HD
ENDBRANCH  19  20
ENDBRANCH  15  19
ENDBRANCH  12  15
ENDBRANCH  10  11
BRANCH  10  22
ATOM     22  CB  VAL A   2     -13.962 -12.640  -5.320  1.00  0.00     0.015 C 
ATOM     23  CG1 VAL A   2     -12.838 -13.216  -6.182  1.00  0.00     0.010 C 
ATOM     24  CG2 VAL A   2     -13.914 -13.241  -3.902  1.00  0.00     0.010 C 
ENDBRANCH  10  22
ENDBRANCH   7  10
ENDBRANCH   5   6
BRANCH   5  25
ATOM     25  CB  LEU A   3     -18.099  -8.528  -6.275  1.00  0.00     0.038 C 
BRANCH  25  26
ATOM     26  CG  LEU A   3     -17.543  -7.093  -6.222  1.00  0.00    -0.015 C 
ATOM     27  CD1 LEU A   3     -18.189  -6.264  -7.337  1.00  0.00     0.007 C 
ATOM     28  CD2 LEU A   3     -17.813  -6.424  -4.860  1.00  0.00     0.007 C 
ENDBRANCH  25  26
ENDBRANCH   5  25
ENDBRANCH   1   5
BRANCH   3  29
ATOM     29  CA  ALA A   4     -19.827 -11.562  -3.046  1.00  0.00     0.168 C 
ATOM     30  CB  ALA A   4     -19.718 -11.727  -1.532  1.00  0.00     0.041 C 
BRANCH  29  31
ATOM     31  C   ALA A   4     -21.168 -11.054  -3.465  1.00  0.00     0.242 C 
ATOM     32  N   ARG A   5     -21.503 -11.138  -4.843  1.00  0.00    -0.343 N 
ATOM     33  O   ALA A   4     -21.969 -10.540  -2.637  1.00  0.00    -0.273 OA
ATOM     34  H   UNL     1     -21.067 -11.905  -5.401  1.00  0.00     0.164 HD
BRANCH  32  35
ATOM     35  CA  ARG A   5     -22.679 -10.496  -5.388  1.00  0.00     0.171 C 
BRANCH  35  36
ATOM     36  C   ARG A   5     -23.897 -11.194  -4.885  1.00  0.00     0.243 C 
ATOM     37  N   ASN A   6     -24.982 -10.402  -4.433  1.00  0.00    -0.341 N 
ATOM     38  O   ARG A   5     -23.965 -12.454  -4.868  1.00  0.00    -0.273 OA
ATOM     39  H   UNL     1     -24.931  -9.364  -4.552  1.00  0.00     0.164 HD
BRANCH  37  40
ATOM     40  CA  ASN A   6     -26.189 -10.994  -3.883  1.00  0.00     0.201 C 
BRANCH  40  41
ATOM     41  C   ASN A   6     -27.053 -11.522  -4.997  1.00  0.00     0.326 C 
ATOM     42  O   ASN A   6     -27.151 -10.892  -6.084  1.00  0.00    -0.250 OA
BRANCH  41  43
ATOM     43  OXT ASN A   6     -27.773 -12.698  -4.811  1.00  0.00    -0.480 OA
ATOM     44  H   UNL     1     -28.370 -13.063  -5.543  1.00  0.00     0.296 HD
ENDBRANCH  41  43
ENDBRANCH  40  41
BRANCH  40  45
ATOM     45  CB  ASN A   6     -26.930  -9.934  -3.062  1.00  0.00     0.136 C 
BRANCH  45  46
ATOM     46  CG  ASN A   6     -28.019 -10.549  -2.252  1.00  0.00     0.220 C 
ATOM     47  ND2 ASN A   6     -27.701 -11.241  -1.053  1.00  0.00    -0.370 N 
ATOM     48  OD1 ASN A   6     -29.213 -10.484  -2.643  1.00  0.00    -0.275 OA
ATOM     49  H   UNL     1     -28.456 -11.688  -0.487  1.00  0.00     0.159 HD
ATOM     50  H   UNL     1     -26.713 -11.314  -0.724  1.00  0.00     0.159 HD
ENDBRANCH  45  46
ENDBRANCH  40  45
ENDBRANCH  37  40
ENDBRANCH  35  36
BRANCH  35  51
ATOM     51  CB  ARG A   5     -22.649 -10.518  -6.916  1.00  0.00     0.037 C 
BRANCH  51  52
ATOM     52  CG  ARG A   5     -21.461  -9.719  -7.459  1.00  0.00     0.024 C 
BRANCH  52  53
ATOM     53  CD  ARG A   5     -21.602  -9.480  -8.963  1.00  0.00     0.116 C 
BRANCH  53  54
ATOM     54  NE  ARG A   5     -21.190  -8.117  -9.282  1.00  0.00    -0.357 N 
ATOM     55  CZ  ARG A   5     -20.075  -7.775 -10.105  1.00  0.00     0.185 C 
ATOM     56  NH2 ARG A   5     -19.200  -8.774 -10.616  1.00  0.00    -0.370 N 
ATOM     57  H   UNL     1     -21.775  -7.342  -8.894  1.00  0.00     0.163 HD
ATOM     58  H   UNL     1     -18.494  -8.517 -11.342  1.00  0.00     0.159 HD
ATOM     59  H   UNL     1     -19.096  -9.710 -10.171  1.00  0.00     0.159 HD
BRANCH  55  60
ATOM     60  NH1 ARG A   5     -19.847  -6.533 -10.392  1.00  0.00    -0.270 NA
ATOM     61  H   UNL     1     -20.457  -5.762 -10.039  1.00  0.00     0.191 HD
ENDBRANCH  55  60
ENDBRANCH  53  54
ENDBRANCH  52  53
ENDBRANCH  51  52
ENDBRANCH  35  51
ENDBRANCH  32  35
ENDBRANCH  29  31
ENDBRANCH   3  29
TORSDOF 25
