REMARK SMILES C[C@H](NC(=O)[C@H](CCCNC(=N)N)NC(=O)[C@H](Cc1ccccc1)NC(=O)[C@@H](N)CO)C(=O)N[C@@H](CCCNC(=N)N)C(=O)N[C@@H](CC(N)=O)C(=O)O
REMARK SMILES IDX 4 1 5 2 3 3 6 5 14 6 15 7 16 8 17 10 25 11 26 12 27 13 28 15
REMARK SMILES IDX 29 16 30 19 31 20 18 22 19 23 20 24 24 25 21 26 23 27 22 28
REMARK SMILES IDX 7 29 8 30 9 31 10 32 11 33 13 34 12 38 2 40 1 41 32 42 34 43
REMARK SMILES IDX 33 44 35 46 43 47 45 48 44 49 46 51 51 52 52 53 53 54 47 56
REMARK SMILES IDX 48 57 49 58 50 59 36 62 37 63 38 64 39 65 40 66 42 67 41 71
REMARK H PARENT 3 4 14 9 25 14 29 17 29 18 31 21 10 35 13 36 13 37 12 39 34 45
REMARK H PARENT 45 50 53 55 49 60 49 61 39 68 42 69 42 70 41 72
ROOT
ATOM      1  C   ARG A   3     -18.386 -10.544  -4.858  1.00  0.00     0.243 C 
ATOM      2  O   ARG A   3     -18.755 -11.397  -5.710  1.00  0.00    -0.273 OA
ATOM      3  N   ALA A   4     -18.820 -10.617  -3.503  1.00  0.00    -0.343 N 
ATOM      4  H   UNL     1     -18.467  -9.902  -2.826  1.00  0.00     0.164 HD
ENDROOT
BRANCH   1   5
ATOM      5  CA  ARG A   3     -17.462  -9.439  -5.240  1.00  0.00     0.171 C 
BRANCH   5   6
ATOM      6  N   ARG A   3     -16.217 -10.002  -5.723  1.00  0.00    -0.343 N 
ATOM      7  C   PHE A   2     -15.256 -10.543  -4.823  1.00  0.00     0.243 C 
ATOM      8  O   PHE A   2     -15.477 -10.576  -3.581  1.00  0.00    -0.273 OA
ATOM      9  H   UNL     1     -16.029 -10.030  -6.751  1.00  0.00     0.164 HD
BRANCH   7  10
ATOM     10  CA  PHE A   2     -13.978 -11.060  -5.383  1.00  0.00     0.175 C 
BRANCH  10  11
ATOM     11  N   PHE A   2     -12.856 -10.483  -4.661  1.00  0.00    -0.343 N 
ATOM     12  C   SER A   1     -12.599  -9.080  -4.706  1.00  0.00     0.239 C 
ATOM     13  O   SER A   1     -13.360  -8.310  -5.356  1.00  0.00    -0.273 OA
ATOM     14  H   UNL     1     -12.222 -11.100  -4.105  1.00  0.00     0.164 HD
BRANCH  12  15
ATOM     15  CA  SER A   1     -11.438  -8.536  -3.930  1.00  0.00     0.167 C 
BRANCH  15  16
ATOM     16  N   SER A   1     -10.850  -7.388  -4.623  1.00  0.00    -0.318 NA
ATOM     17  H   UNL     1     -11.541  -6.606  -4.694  1.00  0.00     0.119 HD
ATOM     18  H   UNL     1     -10.030  -7.043  -4.072  1.00  0.00     0.119 HD
ENDBRANCH  15  16
BRANCH  15  19
ATOM     19  CB  SER A   1     -11.842  -8.203  -2.479  1.00  0.00     0.184 C 
BRANCH  19  20
ATOM     20  OG  SER A   1     -12.063  -6.828  -2.319  1.00  0.00    -0.394 OA
ATOM     21  H   UNL     1     -12.319  -6.698  -1.369  1.00  0.00     0.210 HD
ENDBRANCH  19  20
ENDBRANCH  15  19
ENDBRANCH  12  15
ENDBRANCH  10  11
BRANCH  10  22
ATOM     22  CB  PHE A   2     -13.965 -12.595  -5.326  1.00  0.00     0.070 C 
BRANCH  22  23
ATOM     23  CG  PHE A   2     -12.883 -13.199  -6.183  1.00  0.00    -0.045 A 
ATOM     24  CD1 PHE A   2     -12.723 -12.807  -7.526  1.00  0.00     0.004 A 
ATOM     25  CD2 PHE A   2     -12.092 -14.243  -5.682  1.00  0.00     0.004 A 
ATOM     26  CE1 PHE A   2     -11.747 -13.399  -8.324  1.00  0.00     0.000 A 
ATOM     27  CE2 PHE A   2     -11.134 -14.853  -6.495  1.00  0.00     0.000 A 
ATOM     28  CZ  PHE A   2     -10.955 -14.424  -7.811  1.00  0.00     0.000 A 
ENDBRANCH  22  23
ENDBRANCH  10  22
ENDBRANCH   7  10
ENDBRANCH   5   6
BRANCH   5  29
ATOM     29  CB  ARG A   3     -18.111  -8.533  -6.289  1.00  0.00     0.037 C 
BRANCH  29  30
ATOM     30  CG  ARG A   3     -17.511  -7.124  -6.265  1.00  0.00     0.024 C 
BRANCH  30  31
ATOM     31  CD  ARG A   3     -18.193  -6.207  -7.283  1.00  0.00     0.116 C 
BRANCH  31  32
ATOM     32  NE  ARG A   3     -19.551  -5.846  -6.861  1.00  0.00    -0.357 N 
ATOM     33  CZ  ARG A   3     -20.378  -4.897  -7.556  1.00  0.00     0.185 C 
ATOM     34  NH2 ARG A   3     -21.738  -4.729  -7.156  1.00  0.00    -0.370 N 
ATOM     35  H   UNL     1     -19.950  -6.277  -5.996  1.00  0.00     0.163 HD
ATOM     36  H   UNL     1     -22.354  -4.041  -7.643  1.00  0.00     0.159 HD
ATOM     37  H   UNL     1     -22.138  -5.303  -6.380  1.00  0.00     0.159 HD
BRANCH  33  38
ATOM     38  NH1 ARG A   3     -19.916  -4.177  -8.531  1.00  0.00    -0.270 NA
ATOM     39  H   UNL     1     -18.935  -4.237  -8.879  1.00  0.00     0.191 HD
ENDBRANCH  33  38
ENDBRANCH  31  32
ENDBRANCH  30  31
ENDBRANCH  29  30
ENDBRANCH   5  29
ENDBRANCH   1   5
BRANCH   3  40
ATOM     40  CA  ALA A   4     -19.825 -11.559  -3.045  1.00  0.00     0.168 C 
ATOM     41  CB  ALA A   4     -19.718 -11.727  -1.531  1.00  0.00     0.041 C 
BRANCH  40  42
ATOM     42  C   ALA A   4     -21.166 -11.053  -3.465  1.00  0.00     0.242 C 
ATOM     43  N   ARG A   5     -21.502 -11.137  -4.843  1.00  0.00    -0.343 N 
ATOM     44  O   ALA A   4     -21.968 -10.540  -2.637  1.00  0.00    -0.273 OA
ATOM     45  H   UNL     1     -21.064 -11.903  -5.402  1.00  0.00     0.164 HD
BRANCH  43  46
ATOM     46  CA  ARG A   5     -22.678 -10.496  -5.388  1.00  0.00     0.171 C 
BRANCH  46  47
ATOM     47  C   ARG A   5     -23.896 -11.194  -4.886  1.00  0.00     0.243 C 
ATOM     48  N   ASN A   6     -24.982 -10.402  -4.433  1.00  0.00    -0.341 N 
ATOM     49  O   ARG A   5     -23.964 -12.454  -4.868  1.00  0.00    -0.273 OA
ATOM     50  H   UNL     1     -24.931  -9.364  -4.553  1.00  0.00     0.164 HD
BRANCH  48  51
ATOM     51  CA  ASN A   6     -26.189 -10.994  -3.883  1.00  0.00     0.201 C 
BRANCH  51  52
ATOM     52  C   ASN A   6     -27.052 -11.522  -4.997  1.00  0.00     0.326 C 
ATOM     53  O   ASN A   6     -27.151 -10.892  -6.084  1.00  0.00    -0.250 OA
BRANCH  52  54
ATOM     54  OXT ASN A   6     -27.773 -12.698  -4.811  1.00  0.00    -0.480 OA
ATOM     55  H   UNL     1     -28.370 -13.063  -5.543  1.00  0.00     0.296 HD
ENDBRANCH  52  54
ENDBRANCH  51  52
BRANCH  51  56
ATOM     56  CB  ASN A   6     -26.929  -9.934  -3.062  1.00  0.00     0.136 C 
BRANCH  56  57
ATOM     57  CG  ASN A   6     -28.019 -10.549  -2.252  1.00  0.00     0.220 C 
ATOM     58  ND2 ASN A   6     -27.701 -11.241  -1.053  1.00  0.00    -0.370 N 
ATOM     59  OD1 ASN A   6     -29.213 -10.483  -2.643  1.00  0.00    -0.275 OA
ATOM     60  H   UNL     1     -28.456 -11.688  -0.487  1.00  0.00     0.159 HD
ATOM     61  H   UNL     1     -26.713 -11.314  -0.724  1.00  0.00     0.159 HD
ENDBRANCH  56  57
ENDBRANCH  51  56
ENDBRANCH  48  51
ENDBRANCH  46  47
BRANCH  46  62
ATOM     62  CB  ARG A   5     -22.648 -10.517  -6.916  1.00  0.00     0.037 C 
BRANCH  62  63
ATOM     63  CG  ARG A   5     -21.462  -9.714  -7.459  1.00  0.00     0.024 C 
BRANCH  63  64
ATOM     64  CD  ARG A   5     -21.603  -9.476  -8.963  1.00  0.00     0.116 C 
BRANCH  64  65
ATOM     65  NE  ARG A   5     -21.185  -8.116  -9.285  1.00  0.00    -0.357 N 
ATOM     66  CZ  ARG A   5     -20.075  -7.781 -10.113  1.00  0.00     0.185 C 
ATOM     67  NH2 ARG A   5     -19.197  -8.786 -10.614  1.00  0.00    -0.370 N 
ATOM     68  H   UNL     1     -21.765  -7.333  -8.904  1.00  0.00     0.163 HD
ATOM     69  H   UNL     1     -19.087  -9.712 -10.148  1.00  0.00     0.159 HD
ATOM     70  H   UNL     1     -18.502  -8.549 -11.356  1.00  0.00     0.159 HD
BRANCH  66  71
ATOM     71  NH1 ARG A   5     -19.863  -6.540 -10.409  1.00  0.00    -0.270 NA
ATOM     72  H   UNL     1     -19.060  -6.244 -11.008  1.00  0.00     0.191 HD
ENDBRANCH  66  71
ENDBRANCH  64  65
ENDBRANCH  63  64
ENDBRANCH  62  63
ENDBRANCH  46  62
ENDBRANCH  43  46
ENDBRANCH  40  42
ENDBRANCH   3  40
TORSDOF 29
