REMARK SMILES CC(C)C[C@H](NC(=O)[C@H](C)NC(=O)[C@H](CCCNC(=N)N)NC(=O)[C@@H](N)CO)C(=O)N[C@@H](CCCNC(=N)N)C(=O)N[C@@H](CC(N)=O)C(=O)O
REMARK SMILES IDX 7 1 8 2 6 3 9 5 10 6 11 7 12 8 13 9 14 11 22 12 23 13 24 14
REMARK SMILES IDX 25 16 26 17 27 20 28 21 15 23 16 24 17 25 18 26 19 27 21 28
REMARK SMILES IDX 20 32 5 34 29 35 31 36 30 37 32 39 40 40 42 41 41 42 43 44
REMARK SMILES IDX 48 45 49 46 50 47 44 49 45 50 46 51 47 52 33 55 34 56 35 57
REMARK SMILES IDX 36 58 37 59 39 60 38 64 4 66 2 67 1 68 3 69
REMARK H PARENT 6 4 11 10 22 15 26 18 26 19 28 22 18 29 21 30 21 31 20 33
REMARK H PARENT 31 38 42 43 50 48 46 53 46 54 36 61 39 62 39 63 38 65
ROOT
ATOM      1  C   ALA A   3     -18.391 -10.519  -4.876  1.00  0.00     0.242 C 
ATOM      2  O   ALA A   3     -18.750 -11.390  -5.715  1.00  0.00    -0.273 OA
ATOM      3  N   LEU A   4     -18.841 -10.566  -3.528  1.00  0.00    -0.343 N 
ATOM      4  H   UNL     1     -18.565  -9.788  -2.884  1.00  0.00     0.164 HD
ENDROOT
BRANCH   1   5
ATOM      5  CA  ALA A   3     -17.451  -9.429  -5.267  1.00  0.00     0.168 C 
ATOM      6  CB  ALA A   3     -18.067  -8.535  -6.335  1.00  0.00     0.041 C 
BRANCH   5   7
ATOM      7  N   ALA A   3     -16.210 -10.012  -5.739  1.00  0.00    -0.343 N 
ATOM      8  C   ARG A   2     -15.253 -10.551  -4.836  1.00  0.00     0.243 C 
ATOM      9  O   ARG A   2     -15.476 -10.575  -3.593  1.00  0.00    -0.273 OA
ATOM     10  H   UNL     1     -16.020 -10.049  -6.767  1.00  0.00     0.164 HD
BRANCH   8  11
ATOM     11  CA  ARG A   2     -13.971 -11.080  -5.391  1.00  0.00     0.171 C 
BRANCH  11  12
ATOM     12  N   ARG A   2     -12.854 -10.485  -4.671  1.00  0.00    -0.343 N 
ATOM     13  C   SER A   1     -12.601  -9.082  -4.713  1.00  0.00     0.239 C 
ATOM     14  O   SER A   1     -13.364  -8.313  -5.361  1.00  0.00    -0.273 OA
ATOM     15  H   UNL     1     -12.229 -11.091  -4.091  1.00  0.00     0.164 HD
BRANCH  13  16
ATOM     16  CA  SER A   1     -11.441  -8.536  -3.933  1.00  0.00     0.167 C 
BRANCH  16  17
ATOM     17  N   SER A   1     -10.853  -7.388  -4.624  1.00  0.00    -0.318 NA
ATOM     18  H   UNL     1     -11.544  -6.606  -4.696  1.00  0.00     0.119 HD
ATOM     19  H   UNL     1     -10.033  -7.043  -4.072  1.00  0.00     0.119 HD
ENDBRANCH  16  17
BRANCH  16  20
ATOM     20  CB  SER A   1     -11.845  -8.204  -2.482  1.00  0.00     0.184 C 
BRANCH  20  21
ATOM     21  OG  SER A   1     -12.062  -6.829  -2.319  1.00  0.00    -0.394 OA
ATOM     22  H   UNL     1     -12.319  -6.699  -1.369  1.00  0.00     0.210 HD
ENDBRANCH  20  21
ENDBRANCH  16  20
ENDBRANCH  13  16
ENDBRANCH  11  12
BRANCH  11  23
ATOM     23  CB  ARG A   2     -13.952 -12.611  -5.293  1.00  0.00     0.037 C 
BRANCH  23  24
ATOM     24  CG  ARG A   2     -12.856 -13.220  -6.172  1.00  0.00     0.024 C 
BRANCH  24  25
ATOM     25  CD  ARG A   2     -12.839 -14.747  -6.051  1.00  0.00     0.116 C 
BRANCH  25  26
ATOM     26  NE  ARG A   2     -11.771 -15.314  -6.874  1.00  0.00    -0.357 N 
ATOM     27  CZ  ARG A   2     -11.860 -15.434  -8.302  1.00  0.00     0.185 C 
ATOM     28  NH2 ARG A   2     -10.759 -15.975  -9.036  1.00  0.00    -0.370 N 
ATOM     29  H   UNL     1     -10.925 -15.695  -6.392  1.00  0.00     0.163 HD
ATOM     30  H   UNL     1      -9.891 -16.276  -8.540  1.00  0.00     0.159 HD
ATOM     31  H   UNL     1     -10.804 -16.075 -10.074  1.00  0.00     0.159 HD
BRANCH  27  32
ATOM     32  NH1 ARG A   2     -12.935 -15.064  -8.924  1.00  0.00    -0.270 NA
ATOM     33  H   UNL     1     -13.025 -15.145  -9.962  1.00  0.00     0.191 HD
ENDBRANCH  27  32
ENDBRANCH  25  26
ENDBRANCH  24  25
ENDBRANCH  23  24
ENDBRANCH  11  23
ENDBRANCH   8  11
ENDBRANCH   5   7
ENDBRANCH   1   5
BRANCH   3  34
ATOM     34  CA  LEU A   4     -19.811 -11.536  -3.056  1.00  0.00     0.171 C 
BRANCH  34  35
ATOM     35  C   LEU A   4     -21.167 -11.058  -3.464  1.00  0.00     0.243 C 
ATOM     36  N   ARG A   5     -21.505 -11.141  -4.842  1.00  0.00    -0.343 N 
ATOM     37  O   LEU A   4     -21.970 -10.550  -2.634  1.00  0.00    -0.273 OA
ATOM     38  H   UNL     1     -21.063 -11.903  -5.404  1.00  0.00     0.164 HD
BRANCH  36  39
ATOM     39  CA  ARG A   5     -22.679 -10.496  -5.386  1.00  0.00     0.171 C 
BRANCH  39  40
ATOM     40  C   ARG A   5     -23.897 -11.194  -4.885  1.00  0.00     0.243 C 
ATOM     41  N   ASN A   6     -24.982 -10.402  -4.433  1.00  0.00    -0.341 N 
ATOM     42  O   ARG A   5     -23.966 -12.454  -4.867  1.00  0.00    -0.273 OA
ATOM     43  H   UNL     1     -24.931  -9.364  -4.552  1.00  0.00     0.164 HD
BRANCH  41  44
ATOM     44  CA  ASN A   6     -26.189 -10.994  -3.883  1.00  0.00     0.201 C 
BRANCH  44  45
ATOM     45  C   ASN A   6     -27.053 -11.522  -4.997  1.00  0.00     0.326 C 
ATOM     46  O   ASN A   6     -27.151 -10.892  -6.084  1.00  0.00    -0.250 OA
BRANCH  45  47
ATOM     47  OXT ASN A   6     -27.773 -12.698  -4.811  1.00  0.00    -0.480 OA
ATOM     48  H   UNL     1     -28.370 -13.063  -5.543  1.00  0.00     0.296 HD
ENDBRANCH  45  47
ENDBRANCH  44  45
BRANCH  44  49
ATOM     49  CB  ASN A   6     -26.930  -9.934  -3.062  1.00  0.00     0.136 C 
BRANCH  49  50
ATOM     50  CG  ASN A   6     -28.019 -10.549  -2.252  1.00  0.00     0.220 C 
ATOM     51  ND2 ASN A   6     -27.701 -11.241  -1.053  1.00  0.00    -0.370 N 
ATOM     52  OD1 ASN A   6     -29.213 -10.484  -2.642  1.00  0.00    -0.275 OA
ATOM     53  H   UNL     1     -26.713 -11.314  -0.724  1.00  0.00     0.159 HD
ATOM     54  H   UNL     1     -28.456 -11.688  -0.487  1.00  0.00     0.159 HD
ENDBRANCH  49  50
ENDBRANCH  44  49
ENDBRANCH  41  44
ENDBRANCH  39  40
BRANCH  39  55
ATOM     55  CB  ARG A   5     -22.650 -10.514  -6.914  1.00  0.00     0.037 C 
BRANCH  55  56
ATOM     56  CG  ARG A   5     -21.455  -9.724  -7.458  1.00  0.00     0.024 C 
BRANCH  56  57
ATOM     57  CD  ARG A   5     -21.601  -9.480  -8.962  1.00  0.00     0.116 C 
BRANCH  57  58
ATOM     58  NE  ARG A   5     -21.189  -8.118  -9.280  1.00  0.00    -0.357 N 
ATOM     59  CZ  ARG A   5     -20.072  -7.775 -10.101  1.00  0.00     0.185 C 
ATOM     60  NH2 ARG A   5     -19.200  -8.775 -10.617  1.00  0.00    -0.370 N 
ATOM     61  H   UNL     1     -21.775  -7.343  -8.891  1.00  0.00     0.163 HD
ATOM     62  H   UNL     1     -19.100  -9.714 -10.177  1.00  0.00     0.159 HD
ATOM     63  H   UNL     1     -18.495  -8.517 -11.343  1.00  0.00     0.159 HD
BRANCH  59  64
ATOM     64  NH1 ARG A   5     -19.842  -6.533 -10.385  1.00  0.00    -0.270 NA
ATOM     65  H   UNL     1     -20.452  -5.762 -10.031  1.00  0.00     0.191 HD
ENDBRANCH  59  64
ENDBRANCH  57  58
ENDBRANCH  56  57
ENDBRANCH  55  56
ENDBRANCH  39  55
ENDBRANCH  36  39
ENDBRANCH  34  35
BRANCH  34  66
ATOM     66  CB  LEU A   4     -19.648 -11.688  -1.536  1.00  0.00     0.038 C 
BRANCH  66  67
ATOM     67  CG  LEU A   4     -20.294 -12.953  -0.948  1.00  0.00    -0.015 C 
ATOM     68  CD1 LEU A   4     -19.611 -14.230  -1.463  1.00  0.00     0.007 C 
ATOM     69  CD2 LEU A   4     -20.194 -12.896   0.581  1.00  0.00     0.007 C 
ENDBRANCH  66  67
ENDBRANCH  34  66
ENDBRANCH   3  34
TORSDOF 29
