REMARK SMILES CC(C)C[C@H](NC(=O)[C@@H]1CCCN1C(=O)[C@H](CCCNC(=N)N)NC(=O)[C@@H](N)CO)C(=O)N[C@@H](CCCNC(=N)N)C(=O)N[C@@H](CC(N)=O)C(=O)O
REMARK SMILES IDX 7 1 8 2 6 3 9 5 13 6 12 7 10 8 11 9 14 10 15 11 16 12 24 13
REMARK SMILES IDX 25 14 26 15 27 17 28 18 29 21 30 22 17 24 18 25 19 26 20 27
REMARK SMILES IDX 21 28 23 29 22 33 5 35 31 36 33 37 32 38 34 40 42 41 44 42
REMARK SMILES IDX 43 43 45 45 50 46 51 47 52 48 46 50 47 51 48 52 49 53 35 56
REMARK SMILES IDX 36 57 37 58 38 59 39 60 41 61 40 65 4 67 2 68 1 69 3 70
REMARK H PARENT 6 4 24 16 28 19 28 20 30 23 20 30 23 31 23 32 22 34 33 39
REMARK H PARENT 44 44 52 49 48 54 48 55 38 62 41 63 41 64 40 66
ROOT
ATOM      1  C   PRO A   3     -18.371 -10.529  -4.893  1.00  0.00     0.243 C 
ATOM      2  O   PRO A   3     -18.755 -11.395  -5.724  1.00  0.00    -0.273 OA
ATOM      3  N   LEU A   4     -18.824 -10.568  -3.540  1.00  0.00    -0.343 N 
ATOM      4  H   UNL     1     -18.489  -9.832  -2.878  1.00  0.00     0.164 HD
ENDROOT
BRANCH   1   5
ATOM      5  CA  PRO A   3     -17.376  -9.485  -5.312  1.00  0.00     0.174 C 
ATOM      6  N   PRO A   3     -17.722  -8.185  -4.753  1.00  0.00    -0.329 N 
ATOM      7  CD  PRO A   3     -16.782  -7.738  -3.735  1.00  0.00     0.120 C 
ATOM      8  CB  PRO A   3     -15.978  -9.795  -4.769  1.00  0.00     0.037 C 
ATOM      9  CG  PRO A   3     -15.784  -8.878  -3.561  1.00  0.00     0.024 C 
BRANCH   6  10
ATOM     10  C   ARG A   2     -18.812  -7.382  -5.243  1.00  0.00     0.245 C 
ATOM     11  O   ARG A   2     -19.290  -7.618  -6.386  1.00  0.00    -0.272 OA
BRANCH  10  12
ATOM     12  CA  ARG A   2     -19.440  -6.315  -4.377  1.00  0.00     0.171 C 
BRANCH  12  13
ATOM     13  N   ARG A   2     -20.130  -5.317  -5.206  1.00  0.00    -0.343 N 
ATOM     14  C   SER A   1     -19.413  -4.369  -6.013  1.00  0.00     0.239 C 
ATOM     15  O   SER A   1     -18.172  -4.507  -6.199  1.00  0.00    -0.273 OA
ATOM     16  H   UNL     1     -21.175  -5.253  -5.177  1.00  0.00     0.164 HD
BRANCH  14  17
ATOM     17  CA  SER A   1     -20.157  -3.235  -6.683  1.00  0.00     0.167 C 
BRANCH  17  18
ATOM     18  N   SER A   1     -19.327  -2.030  -6.771  1.00  0.00    -0.318 NA
ATOM     19  H   UNL     1     -19.015  -1.764  -5.808  1.00  0.00     0.119 HD
ATOM     20  H   UNL     1     -18.470  -2.232  -7.338  1.00  0.00     0.119 HD
ENDBRANCH  17  18
BRANCH  17  21
ATOM     21  CB  SER A   1     -20.635  -3.645  -8.081  1.00  0.00     0.184 C 
BRANCH  21  22
ATOM     22  OG  SER A   1     -21.585  -4.670  -7.981  1.00  0.00    -0.394 OA
ATOM     23  H   UNL     1     -21.915  -4.828  -8.903  1.00  0.00     0.210 HD
ENDBRANCH  21  22
ENDBRANCH  17  21
ENDBRANCH  14  17
ENDBRANCH  12  13
BRANCH  12  24
ATOM     24  CB  ARG A   2     -20.424  -6.980  -3.388  1.00  0.00     0.037 C 
BRANCH  24  25
ATOM     25  CG  ARG A   2     -20.888  -6.033  -2.267  1.00  0.00     0.024 C 
BRANCH  25  26
ATOM     26  CD  ARG A   2     -19.835  -5.880  -1.158  1.00  0.00     0.116 C 
BRANCH  26  27
ATOM     27  NE  ARG A   2     -20.323  -5.003  -0.091  1.00  0.00    -0.357 N 
ATOM     28  CZ  ARG A   2     -19.545  -4.674   1.076  1.00  0.00     0.185 C 
ATOM     29  NH2 ARG A   2     -20.078  -3.767   2.041  1.00  0.00    -0.370 N 
ATOM     30  H   UNL     1     -21.273  -4.572  -0.175  1.00  0.00     0.163 HD
ATOM     31  H   UNL     1     -19.529  -3.516   2.895  1.00  0.00     0.159 HD
ATOM     32  H   UNL     1     -21.017  -3.336   1.902  1.00  0.00     0.159 HD
BRANCH  28  33
ATOM     33  NH1 ARG A   2     -18.370  -5.184   1.275  1.00  0.00    -0.270 NA
ATOM     34  H   UNL     1     -17.912  -5.854   0.618  1.00  0.00     0.191 HD
ENDBRANCH  28  33
ENDBRANCH  26  27
ENDBRANCH  25  26
ENDBRANCH  24  25
ENDBRANCH  12  24
ENDBRANCH  10  12
ENDBRANCH   6  10
ENDBRANCH   1   5
BRANCH   3  35
ATOM     35  CA  LEU A   4     -19.803 -11.530  -3.060  1.00  0.00     0.171 C 
BRANCH  35  36
ATOM     36  C   LEU A   4     -21.161 -11.050  -3.466  1.00  0.00     0.243 C 
ATOM     37  N   ARG A   5     -21.503 -11.139  -4.842  1.00  0.00    -0.343 N 
ATOM     38  O   LEU A   4     -21.964 -10.543  -2.635  1.00  0.00    -0.273 OA
ATOM     39  H   UNL     1     -21.061 -11.900  -5.403  1.00  0.00     0.164 HD
BRANCH  37  40
ATOM     40  CA  ARG A   5     -22.678 -10.497  -5.387  1.00  0.00     0.171 C 
BRANCH  40  41
ATOM     41  C   ARG A   5     -23.895 -11.195  -4.885  1.00  0.00     0.243 C 
ATOM     42  N   ASN A   6     -24.981 -10.403  -4.433  1.00  0.00    -0.341 N 
ATOM     43  O   ARG A   5     -23.963 -12.455  -4.868  1.00  0.00    -0.273 OA
ATOM     44  H   UNL     1     -24.929  -9.364  -4.549  1.00  0.00     0.164 HD
BRANCH  42  45
ATOM     45  CA  ASN A   6     -26.188 -10.995  -3.883  1.00  0.00     0.201 C 
BRANCH  45  46
ATOM     46  C   ASN A   6     -27.051 -11.524  -4.997  1.00  0.00     0.326 C 
ATOM     47  O   ASN A   6     -27.150 -10.895  -6.084  1.00  0.00    -0.250 OA
BRANCH  46  48
ATOM     48  OXT ASN A   6     -27.770 -12.701  -4.809  1.00  0.00    -0.480 OA
ATOM     49  H   UNL     1     -28.363 -13.070  -5.542  1.00  0.00     0.296 HD
ENDBRANCH  46  48
ENDBRANCH  45  46
BRANCH  45  50
ATOM     50  CB  ASN A   6     -26.928  -9.935  -3.062  1.00  0.00     0.136 C 
BRANCH  50  51
ATOM     51  CG  ASN A   6     -28.019 -10.549  -2.253  1.00  0.00     0.220 C 
ATOM     52  ND2 ASN A   6     -27.702 -11.241  -1.055  1.00  0.00    -0.370 N 
ATOM     53  OD1 ASN A   6     -29.213 -10.482  -2.643  1.00  0.00    -0.275 OA
ATOM     54  H   UNL     1     -26.713 -11.314  -0.725  1.00  0.00     0.159 HD
ATOM     55  H   UNL     1     -28.457 -11.688  -0.489  1.00  0.00     0.159 HD
ENDBRANCH  50  51
ENDBRANCH  45  50
ENDBRANCH  42  45
ENDBRANCH  40  41
BRANCH  40  56
ATOM     56  CB  ARG A   5     -22.648 -10.523  -6.916  1.00  0.00     0.037 C 
BRANCH  56  57
ATOM     57  CG  ARG A   5     -21.476  -9.702  -7.455  1.00  0.00     0.024 C 
BRANCH  57  58
ATOM     58  CD  ARG A   5     -21.602  -9.481  -8.962  1.00  0.00     0.116 C 
BRANCH  58  59
ATOM     59  NE  ARG A   5     -21.190  -8.120  -9.290  1.00  0.00    -0.357 N 
ATOM     60  CZ  ARG A   5     -20.071  -7.777 -10.105  1.00  0.00     0.185 C 
ATOM     61  NH2 ARG A   5     -19.197  -8.779 -10.620  1.00  0.00    -0.370 N 
ATOM     62  H   UNL     1     -21.778  -7.341  -8.914  1.00  0.00     0.163 HD
ATOM     63  H   UNL     1     -19.100  -9.718 -10.179  1.00  0.00     0.159 HD
ATOM     64  H   UNL     1     -18.496  -8.532 -11.354  1.00  0.00     0.159 HD
BRANCH  60  65
ATOM     65  NH1 ARG A   5     -19.852  -6.531 -10.379  1.00  0.00    -0.270 NA
ATOM     66  H   UNL     1     -19.048  -6.226 -10.971  1.00  0.00     0.191 HD
ENDBRANCH  60  65
ENDBRANCH  58  59
ENDBRANCH  57  58
ENDBRANCH  56  57
ENDBRANCH  40  56
ENDBRANCH  37  40
ENDBRANCH  35  36
BRANCH  35  67
ATOM     67  CB  LEU A   4     -19.643 -11.683  -1.538  1.00  0.00     0.038 C 
BRANCH  67  68
ATOM     68  CG  LEU A   4     -20.293 -12.949  -0.950  1.00  0.00    -0.015 C 
ATOM     69  CD1 LEU A   4     -19.611 -14.227  -1.467  1.00  0.00     0.007 C 
ATOM     70  CD2 LEU A   4     -20.196 -12.893   0.580  1.00  0.00     0.007 C 
ENDBRANCH  67  68
ENDBRANCH  35  67
ENDBRANCH   3  35
TORSDOF 29
