REMARK SMILES CC(C)C[C@H](NC(=O)[C@H](Cc1ccccc1)NC(=O)CNC(=O)[C@@H](N)CO)C(=O)N[C@@H](CCCNC(=N)N)C(=O)N[C@@H](CC(N)=O)C(=O)O
REMARK SMILES IDX 7 1 8 2 6 3 9 5 17 6 18 7 19 8 20 10 21 11 22 12 23 13 24 15
REMARK SMILES IDX 25 16 26 19 27 20 10 22 11 23 12 24 16 25 13 26 15 27 14 28
REMARK SMILES IDX 5 29 28 30 30 31 29 32 31 34 39 35 41 36 40 37 42 39 47 40
REMARK SMILES IDX 48 41 49 42 43 44 44 45 45 46 46 47 32 50 33 51 34 52 35 53
REMARK SMILES IDX 36 54 38 55 37 59 4 61 2 62 1 63 3 64
REMARK H PARENT 6 4 17 9 21 14 25 17 25 18 27 21 30 33 41 38 49 43 45 48 45 49
REMARK H PARENT 35 56 38 57 38 58 37 60
ROOT
ATOM      1  C   PHE A   3     -18.382 -10.527  -4.872  1.00  0.00     0.243 C 
ATOM      2  O   PHE A   3     -18.744 -11.392  -5.717  1.00  0.00    -0.273 OA
ATOM      3  N   LEU A   4     -18.843 -10.571  -3.527  1.00  0.00    -0.343 N 
ATOM      4  H   UNL     1     -18.581  -9.787  -2.886  1.00  0.00     0.164 HD
ENDROOT
BRANCH   1   5
ATOM      5  CA  PHE A   3     -17.449  -9.429  -5.256  1.00  0.00     0.175 C 
BRANCH   5   6
ATOM      6  N   PHE A   3     -16.203 -10.002  -5.736  1.00  0.00    -0.342 N 
ATOM      7  C   GLY A   2     -15.254 -10.561  -4.834  1.00  0.00     0.240 C 
ATOM      8  O   GLY A   2     -15.481 -10.584  -3.592  1.00  0.00    -0.273 OA
ATOM      9  H   UNL     1     -15.998 -10.014  -6.762  1.00  0.00     0.164 HD
BRANCH   7  10
ATOM     10  CA  GLY A   2     -13.975 -11.101  -5.372  1.00  0.00     0.216 C 
BRANCH  10  11
ATOM     11  N   GLY A   2     -12.855 -10.491  -4.679  1.00  0.00    -0.346 N 
ATOM     12  C   SER A   1     -12.607  -9.087  -4.719  1.00  0.00     0.239 C 
ATOM     13  O   SER A   1     -13.374  -8.319  -5.364  1.00  0.00    -0.273 OA
ATOM     14  H   UNL     1     -12.224 -11.108  -4.119  1.00  0.00     0.164 HD
BRANCH  12  15
ATOM     15  CA  SER A   1     -11.445  -8.538  -3.939  1.00  0.00     0.167 C 
BRANCH  15  16
ATOM     16  N   SER A   1     -10.851  -7.381  -4.611  1.00  0.00    -0.318 NA
ATOM     17  H   UNL     1     -10.480  -7.689  -5.540  1.00  0.00     0.119 HD
ATOM     18  H   UNL     1     -11.579  -6.653  -4.796  1.00  0.00     0.119 HD
ENDBRANCH  15  16
BRANCH  15  19
ATOM     19  CB  SER A   1     -11.850  -8.203  -2.490  1.00  0.00     0.184 C 
BRANCH  19  20
ATOM     20  OG  SER A   1     -12.054  -6.824  -2.319  1.00  0.00    -0.394 OA
ATOM     21  H   UNL     1     -11.169  -6.424  -2.110  1.00  0.00     0.210 HD
ENDBRANCH  19  20
ENDBRANCH  15  19
ENDBRANCH  12  15
ENDBRANCH  10  11
ENDBRANCH   7  10
ENDBRANCH   5   6
BRANCH   5  22
ATOM     22  CB  PHE A   3     -18.093  -8.511  -6.303  1.00  0.00     0.070 C 
BRANCH  22  23
ATOM     23  CG  PHE A   3     -17.497  -7.128  -6.260  1.00  0.00    -0.045 A 
ATOM     24  CD1 PHE A   3     -18.012  -6.157  -5.384  1.00  0.00     0.004 A 
ATOM     25  CD2 PHE A   3     -16.377  -6.819  -7.050  1.00  0.00     0.004 A 
ATOM     26  CE1 PHE A   3     -17.426  -4.889  -5.317  1.00  0.00     0.000 A 
ATOM     27  CE2 PHE A   3     -15.794  -5.550  -6.979  1.00  0.00     0.000 A 
ATOM     28  CZ  PHE A   3     -16.319  -4.585  -6.114  1.00  0.00     0.000 A 
ENDBRANCH  22  23
ENDBRANCH   5  22
ENDBRANCH   1   5
BRANCH   3  29
ATOM     29  CA  LEU A   4     -19.813 -11.539  -3.056  1.00  0.00     0.171 C 
BRANCH  29  30
ATOM     30  C   LEU A   4     -21.168 -11.059  -3.464  1.00  0.00     0.243 C 
ATOM     31  N   ARG A   5     -21.504 -11.141  -4.843  1.00  0.00    -0.343 N 
ATOM     32  O   LEU A   4     -21.970 -10.550  -2.634  1.00  0.00    -0.273 OA
ATOM     33  H   UNL     1     -21.059 -11.899  -5.406  1.00  0.00     0.164 HD
BRANCH  31  34
ATOM     34  CA  ARG A   5     -22.679 -10.497  -5.387  1.00  0.00     0.171 C 
BRANCH  34  35
ATOM     35  C   ARG A   5     -23.897 -11.195  -4.885  1.00  0.00     0.243 C 
ATOM     36  N   ASN A   6     -24.982 -10.402  -4.433  1.00  0.00    -0.341 N 
ATOM     37  O   ARG A   5     -23.966 -12.455  -4.867  1.00  0.00    -0.273 OA
ATOM     38  H   UNL     1     -24.931  -9.364  -4.552  1.00  0.00     0.164 HD
BRANCH  36  39
ATOM     39  CA  ASN A   6     -26.189 -10.994  -3.883  1.00  0.00     0.201 C 
BRANCH  39  40
ATOM     40  C   ASN A   6     -27.053 -11.522  -4.997  1.00  0.00     0.326 C 
ATOM     41  O   ASN A   6     -27.151 -10.892  -6.084  1.00  0.00    -0.250 OA
BRANCH  40  42
ATOM     42  OXT ASN A   6     -27.773 -12.698  -4.811  1.00  0.00    -0.480 OA
ATOM     43  H   UNL     1     -28.370 -13.063  -5.543  1.00  0.00     0.296 HD
ENDBRANCH  40  42
ENDBRANCH  39  40
BRANCH  39  44
ATOM     44  CB  ASN A   6     -26.930  -9.934  -3.062  1.00  0.00     0.136 C 
BRANCH  44  45
ATOM     45  CG  ASN A   6     -28.019 -10.549  -2.252  1.00  0.00     0.220 C 
ATOM     46  ND2 ASN A   6     -27.701 -11.241  -1.053  1.00  0.00    -0.370 N 
ATOM     47  OD1 ASN A   6     -29.213 -10.484  -2.643  1.00  0.00    -0.275 OA
ATOM     48  H   UNL     1     -28.456 -11.688  -0.487  1.00  0.00     0.159 HD
ATOM     49  H   UNL     1     -26.713 -11.314  -0.724  1.00  0.00     0.159 HD
ENDBRANCH  44  45
ENDBRANCH  39  44
ENDBRANCH  36  39
ENDBRANCH  34  35
BRANCH  34  50
ATOM     50  CB  ARG A   5     -22.649 -10.518  -6.916  1.00  0.00     0.037 C 
BRANCH  50  51
ATOM     51  CG  ARG A   5     -21.461  -9.719  -7.459  1.00  0.00     0.024 C 
BRANCH  51  52
ATOM     52  CD  ARG A   5     -21.602  -9.480  -8.963  1.00  0.00     0.116 C 
BRANCH  52  53
ATOM     53  NE  ARG A   5     -21.190  -8.118  -9.283  1.00  0.00    -0.357 N 
ATOM     54  CZ  ARG A   5     -20.071  -7.775 -10.101  1.00  0.00     0.185 C 
ATOM     55  NH2 ARG A   5     -19.199  -8.774 -10.616  1.00  0.00    -0.370 N 
ATOM     56  H   UNL     1     -21.777  -7.343  -8.897  1.00  0.00     0.163 HD
ATOM     57  H   UNL     1     -18.491  -8.516 -11.340  1.00  0.00     0.159 HD
ATOM     58  H   UNL     1     -19.100  -9.714 -10.176  1.00  0.00     0.159 HD
BRANCH  54  59
ATOM     59  NH1 ARG A   5     -19.841  -6.532 -10.384  1.00  0.00    -0.270 NA
ATOM     60  H   UNL     1     -20.451  -5.762 -10.030  1.00  0.00     0.191 HD
ENDBRANCH  54  59
ENDBRANCH  52  53
ENDBRANCH  51  52
ENDBRANCH  50  51
ENDBRANCH  34  50
ENDBRANCH  31  34
ENDBRANCH  29  30
BRANCH  29  61
ATOM     61  CB  LEU A   4     -19.650 -11.690  -1.536  1.00  0.00     0.038 C 
BRANCH  61  62
ATOM     62  CG  LEU A   4     -20.295 -12.954  -0.947  1.00  0.00    -0.015 C 
ATOM     63  CD1 LEU A   4     -19.611 -14.231  -1.463  1.00  0.00     0.007 C 
ATOM     64  CD2 LEU A   4     -20.194 -12.897   0.582  1.00  0.00     0.007 C 
ENDBRANCH  61  62
ENDBRANCH  29  61
ENDBRANCH   3  29
TORSDOF 26
