REMARK SMILES CC(C)C[C@H](NC(=O)[C@H](CCCNC(=N)N)NC(=O)[C@H](Cc1ccccc1)NC(=O)[C@@H](N)CO)C(=O)N[C@@H](CCCNC(=N)N)C(=O)N[C@@H](CO)C(=O)O
REMARK SMILES IDX 7 1 8 2 6 3 9 5 17 6 18 7 19 8 20 10 28 11 29 12 30 13 31 15
REMARK SMILES IDX 32 16 33 19 34 20 21 22 22 23 23 24 27 25 24 26 26 27 25 28
REMARK SMILES IDX 10 29 11 30 12 31 13 32 14 33 16 34 15 38 5 40 35 41 37 42
REMARK SMILES IDX 36 43 38 45 46 46 48 47 47 48 49 50 52 51 53 52 54 53 50 55
REMARK SMILES IDX 51 56 39 58 40 59 41 60 42 61 43 62 45 63 44 67 4 69 2 70
REMARK SMILES IDX 1 71 3 72
REMARK H PARENT 6 4 17 9 28 14 32 17 32 18 34 21 13 35 16 36 16 37 15 39 37 44
REMARK H PARENT 48 49 54 54 51 57 42 64 45 65 45 66 44 68
ROOT
ATOM      1  C   ARG A   3     -18.384 -10.533  -4.866  1.00  0.00     0.243 C 
ATOM      2  O   ARG A   3     -18.745 -11.396  -5.713  1.00  0.00    -0.273 OA
ATOM      3  N   LEU A   4     -18.846 -10.576  -3.523  1.00  0.00    -0.343 N 
ATOM      4  H   UNL     1     -18.587  -9.791  -2.881  1.00  0.00     0.164 HD
ENDROOT
BRANCH   1   5
ATOM      5  CA  ARG A   3     -17.457  -9.432  -5.246  1.00  0.00     0.171 C 
BRANCH   5   6
ATOM      6  N   ARG A   3     -16.214 -10.000  -5.727  1.00  0.00    -0.343 N 
ATOM      7  C   PHE A   2     -15.256 -10.542  -4.825  1.00  0.00     0.243 C 
ATOM      8  O   PHE A   2     -15.479 -10.576  -3.584  1.00  0.00    -0.273 OA
ATOM      9  H   UNL     1     -16.024 -10.027  -6.755  1.00  0.00     0.164 HD
BRANCH   7  10
ATOM     10  CA  PHE A   2     -13.978 -11.059  -5.384  1.00  0.00     0.175 C 
BRANCH  10  11
ATOM     11  N   PHE A   2     -12.857 -10.484  -4.660  1.00  0.00    -0.343 N 
ATOM     12  C   SER A   1     -12.597  -9.082  -4.702  1.00  0.00     0.239 C 
ATOM     13  O   SER A   1     -13.355  -8.307  -5.350  1.00  0.00    -0.273 OA
ATOM     14  H   UNL     1     -12.223 -11.103  -4.104  1.00  0.00     0.164 HD
BRANCH  12  15
ATOM     15  CA  SER A   1     -11.430  -8.545  -3.930  1.00  0.00     0.167 C 
BRANCH  15  16
ATOM     16  N   SER A   1     -10.864  -7.379  -4.607  1.00  0.00    -0.318 NA
ATOM     17  H   UNL     1     -10.544  -7.674  -5.559  1.00  0.00     0.119 HD
ATOM     18  H   UNL     1     -10.001  -7.089  -4.092  1.00  0.00     0.119 HD
ENDBRANCH  15  16
BRANCH  15  19
ATOM     19  CB  SER A   1     -11.839  -8.205  -2.484  1.00  0.00     0.184 C 
BRANCH  19  20
ATOM     20  OG  SER A   1     -12.062  -6.828  -2.339  1.00  0.00    -0.394 OA
ATOM     21  H   UNL     1     -12.322  -6.688  -1.391  1.00  0.00     0.210 HD
ENDBRANCH  19  20
ENDBRANCH  15  19
ENDBRANCH  12  15
ENDBRANCH  10  11
BRANCH  10  22
ATOM     22  CB  PHE A   2     -13.966 -12.595  -5.327  1.00  0.00     0.070 C 
BRANCH  22  23
ATOM     23  CG  PHE A   2     -12.883 -13.199  -6.184  1.00  0.00    -0.045 A 
ATOM     24  CD1 PHE A   2     -12.723 -12.807  -7.526  1.00  0.00     0.004 A 
ATOM     25  CD2 PHE A   2     -12.092 -14.243  -5.682  1.00  0.00     0.004 A 
ATOM     26  CE1 PHE A   2     -11.747 -13.399  -8.324  1.00  0.00     0.000 A 
ATOM     27  CE2 PHE A   2     -11.134 -14.853  -6.495  1.00  0.00     0.000 A 
ATOM     28  CZ  PHE A   2     -10.955 -14.424  -7.811  1.00  0.00     0.000 A 
ENDBRANCH  22  23
ENDBRANCH  10  22
ENDBRANCH   7  10
ENDBRANCH   5   6
BRANCH   5  29
ATOM     29  CB  ARG A   3     -18.106  -8.526  -6.294  1.00  0.00     0.037 C 
BRANCH  29  30
ATOM     30  CG  ARG A   3     -17.520  -7.113  -6.262  1.00  0.00     0.024 C 
BRANCH  30  31
ATOM     31  CD  ARG A   3     -18.193  -6.242  -7.322  1.00  0.00     0.116 C 
BRANCH  31  32
ATOM     32  NE  ARG A   3     -17.673  -4.877  -7.269  1.00  0.00    -0.357 N 
ATOM     33  CZ  ARG A   3     -18.064  -3.928  -6.266  1.00  0.00     0.185 C 
ATOM     34  NH2 ARG A   3     -17.491  -2.618  -6.271  1.00  0.00    -0.370 N 
ATOM     35  H   UNL     1     -17.027  -4.565  -8.029  1.00  0.00     0.163 HD
ATOM     36  H   UNL     1     -16.787  -2.352  -6.994  1.00  0.00     0.159 HD
ATOM     37  H   UNL     1     -17.764  -1.910  -5.554  1.00  0.00     0.159 HD
BRANCH  33  38
ATOM     38  NH1 ARG A   3     -18.939  -4.249  -5.366  1.00  0.00    -0.270 NA
ATOM     39  H   UNL     1     -19.243  -3.575  -4.628  1.00  0.00     0.191 HD
ENDBRANCH  33  38
ENDBRANCH  31  32
ENDBRANCH  30  31
ENDBRANCH  29  30
ENDBRANCH   5  29
ENDBRANCH   1   5
BRANCH   3  40
ATOM     40  CA  LEU A   4     -19.817 -11.542  -3.054  1.00  0.00     0.171 C 
BRANCH  40  41
ATOM     41  C   LEU A   4     -21.171 -11.059  -3.463  1.00  0.00     0.243 C 
ATOM     42  N   ARG A   5     -21.507 -11.139  -4.841  1.00  0.00    -0.343 N 
ATOM     43  O   LEU A   4     -21.972 -10.549  -2.633  1.00  0.00    -0.273 OA
ATOM     44  H   UNL     1     -21.061 -11.896  -5.406  1.00  0.00     0.164 HD
BRANCH  42  45
ATOM     45  CA  ARG A   5     -22.683 -10.496  -5.385  1.00  0.00     0.171 C 
BRANCH  45  46
ATOM     46  C   ARG A   5     -23.901 -11.194  -4.882  1.00  0.00     0.243 C 
ATOM     47  N   SER A   6     -24.985 -10.405  -4.417  1.00  0.00    -0.339 N 
ATOM     48  O   ARG A   5     -23.969 -12.454  -4.869  1.00  0.00    -0.273 OA
ATOM     49  H   UNL     1     -24.928  -9.364  -4.513  1.00  0.00     0.164 HD
BRANCH  47  50
ATOM     50  CA  SER A   6     -26.195 -11.003  -3.874  1.00  0.00     0.218 C 
BRANCH  50  51
ATOM     51  C   SER A   6     -27.062 -11.517  -4.990  1.00  0.00     0.328 C 
ATOM     52  O   SER A   6     -27.145 -10.889  -6.080  1.00  0.00    -0.250 OA
BRANCH  51  53
ATOM     53  OXT SER A   6     -27.810 -12.674  -4.801  1.00  0.00    -0.480 OA
ATOM     54  H   UNL     1     -28.411 -13.030  -5.534  1.00  0.00     0.296 HD
ENDBRANCH  51  53
ENDBRANCH  50  51
BRANCH  50  55
ATOM     55  CB  SER A   6     -26.951  -9.969  -3.034  1.00  0.00     0.193 C 
BRANCH  55  56
ATOM     56  OG  SER A   6     -26.149  -9.506  -1.980  1.00  0.00    -0.394 OA
ATOM     57  H   UNL     1     -26.126 -10.230  -1.301  1.00  0.00     0.210 HD
ENDBRANCH  55  56
ENDBRANCH  50  55
ENDBRANCH  47  50
ENDBRANCH  45  46
BRANCH  45  58
ATOM     58  CB  ARG A   5     -22.652 -10.517  -6.914  1.00  0.00     0.037 C 
BRANCH  58  59
ATOM     59  CG  ARG A   5     -21.462  -9.719  -7.457  1.00  0.00     0.024 C 
BRANCH  59  60
ATOM     60  CD  ARG A   5     -21.602  -9.480  -8.962  1.00  0.00     0.116 C 
BRANCH  60  61
ATOM     61  NE  ARG A   5     -21.189  -8.117  -9.281  1.00  0.00    -0.357 N 
ATOM     62  CZ  ARG A   5     -20.075  -7.775 -10.104  1.00  0.00     0.185 C 
ATOM     63  NH2 ARG A   5     -19.200  -8.774 -10.616  1.00  0.00    -0.370 N 
ATOM     64  H   UNL     1     -21.774  -7.342  -8.892  1.00  0.00     0.163 HD
ATOM     65  H   UNL     1     -19.097  -9.710 -10.171  1.00  0.00     0.159 HD
ATOM     66  H   UNL     1     -18.494  -8.517 -11.342  1.00  0.00     0.159 HD
BRANCH  62  67
ATOM     67  NH1 ARG A   5     -19.847  -6.533 -10.391  1.00  0.00    -0.270 NA
ATOM     68  H   UNL     1     -20.457  -5.762 -10.037  1.00  0.00     0.191 HD
ENDBRANCH  62  67
ENDBRANCH  60  61
ENDBRANCH  59  60
ENDBRANCH  58  59
ENDBRANCH  45  58
ENDBRANCH  42  45
ENDBRANCH  40  41
BRANCH  40  69
ATOM     69  CB  LEU A   4     -19.653 -11.691  -1.534  1.00  0.00     0.038 C 
BRANCH  69  70
ATOM     70  CG  LEU A   4     -20.296 -12.956  -0.946  1.00  0.00    -0.015 C 
ATOM     71  CD1 LEU A   4     -19.611 -14.232  -1.462  1.00  0.00     0.007 C 
ATOM     72  CD2 LEU A   4     -20.194 -12.898   0.583  1.00  0.00     0.007 C 
ENDBRANCH  69  70
ENDBRANCH  40  69
ENDBRANCH   3  40
TORSDOF 31
