REMARK SMILES CC[C@H](C)[C@H](NC(=O)[C@H](CC(C)C)NC(=O)[C@H](CCCCN)NC(=O)[C@@H](N)CO)C(=O)N[C@@H](CCCNC(=N)N)C(=O)N[C@@H](CC(N)=O)C(=O)O
REMARK SMILES IDX 7 1 8 2 6 3 9 5 14 6 15 7 16 8 17 10 23 11 24 12 25 13 26 15
REMARK SMILES IDX 27 16 28 19 29 20 18 22 19 23 20 24 21 25 22 26 10 29 11 30
REMARK SMILES IDX 12 31 13 32 5 33 30 34 32 35 31 36 33 38 41 39 43 40 42 41
REMARK SMILES IDX 44 43 49 44 50 45 51 46 45 48 46 49 47 50 48 51 34 54 35 55
REMARK SMILES IDX 36 56 37 57 38 58 40 59 39 63 3 65 4 66 2 67 1 68
REMARK H PARENT 6 4 14 9 23 14 27 17 27 18 29 21 22 27 22 28 32 37 43 42 51 47
REMARK H PARENT 47 52 47 53 37 60 40 61 40 62 39 64
ROOT
ATOM      1  C   LEU A   3     -18.385 -10.546  -4.868  1.00  0.00     0.243 C 
ATOM      2  O   LEU A   3     -18.759 -11.404  -5.713  1.00  0.00    -0.273 OA
ATOM      3  N   ILE A   4     -18.832 -10.586  -3.518  1.00  0.00    -0.342 N 
ATOM      4  H   UNL     1     -18.439  -9.884  -2.853  1.00  0.00     0.164 HD
ENDROOT
BRANCH   1   5
ATOM      5  CA  LEU A   3     -17.449  -9.456  -5.251  1.00  0.00     0.171 C 
BRANCH   5   6
ATOM      6  N   LEU A   3     -16.212 -10.025  -5.740  1.00  0.00    -0.343 N 
ATOM      7  C   LYS A   2     -15.249 -10.556  -4.838  1.00  0.00     0.243 C 
ATOM      8  O   LYS A   2     -15.468 -10.580  -3.595  1.00  0.00    -0.273 OA
ATOM      9  H   UNL     1     -16.033 -10.071  -6.770  1.00  0.00     0.164 HD
BRANCH   7  10
ATOM     10  CA  LYS A   2     -13.969 -11.075  -5.397  1.00  0.00     0.171 C 
BRANCH  10  11
ATOM     11  N   LYS A   2     -12.853 -10.485  -4.674  1.00  0.00    -0.343 N 
ATOM     12  C   SER A   1     -12.603  -9.081  -4.713  1.00  0.00     0.239 C 
ATOM     13  O   SER A   1     -13.368  -8.313  -5.359  1.00  0.00    -0.273 OA
ATOM     14  H   UNL     1     -12.225 -11.092  -4.099  1.00  0.00     0.164 HD
BRANCH  12  15
ATOM     15  CA  SER A   1     -11.439  -8.537  -3.937  1.00  0.00     0.167 C 
BRANCH  15  16
ATOM     16  N   SER A   1     -10.844  -7.379  -4.607  1.00  0.00    -0.318 NA
ATOM     17  H   UNL     1     -10.468  -7.688  -5.533  1.00  0.00     0.119 HD
ATOM     18  H   UNL     1     -11.572  -6.652  -4.799  1.00  0.00     0.119 HD
ENDBRANCH  15  16
BRANCH  15  19
ATOM     19  CB  SER A   1     -11.840  -8.201  -2.488  1.00  0.00     0.184 C 
BRANCH  19  20
ATOM     20  OG  SER A   1     -12.063  -6.826  -2.322  1.00  0.00    -0.394 OA
ATOM     21  H   UNL     1     -12.976  -6.647  -2.669  1.00  0.00     0.210 HD
ENDBRANCH  19  20
ENDBRANCH  15  19
ENDBRANCH  12  15
ENDBRANCH  10  11
BRANCH  10  22
ATOM     22  CB  LYS A   2     -13.950 -12.607  -5.311  1.00  0.00     0.035 C 
BRANCH  22  23
ATOM     23  CG  LYS A   2     -12.846 -13.248  -6.168  1.00  0.00     0.004 C 
BRANCH  23  24
ATOM     24  CD  LYS A   2     -12.982 -13.056  -7.692  1.00  0.00     0.015 C 
BRANCH  24  25
ATOM     25  CE  LYS A   2     -14.323 -13.548  -8.250  1.00  0.00     0.077 C 
BRANCH  25  26
ATOM     26  NZ  LYS A   2     -14.295 -13.532  -9.710  1.00  0.00    -0.330 NA
ATOM     27  H   UNL     1     -13.659 -14.298 -10.033  1.00  0.00     0.118 HD
ATOM     28  H   UNL     1     -15.252 -13.781 -10.049  1.00  0.00     0.118 HD
ENDBRANCH  25  26
ENDBRANCH  24  25
ENDBRANCH  23  24
ENDBRANCH  22  23
ENDBRANCH  10  22
ENDBRANCH   7  10
ENDBRANCH   5   6
BRANCH   5  29
ATOM     29  CB  LEU A   3     -18.096  -8.525  -6.281  1.00  0.00     0.038 C 
BRANCH  29  30
ATOM     30  CG  LEU A   3     -17.542  -7.089  -6.224  1.00  0.00    -0.015 C 
ATOM     31  CD1 LEU A   3     -18.188  -6.261  -7.338  1.00  0.00     0.007 C 
ATOM     32  CD2 LEU A   3     -17.814  -6.424  -4.861  1.00  0.00     0.007 C 
ENDBRANCH  29  30
ENDBRANCH   5  29
ENDBRANCH   1   5
BRANCH   3  33
ATOM     33  CA  ILE A   4     -19.825 -11.523  -3.030  1.00  0.00     0.174 C 
BRANCH  33  34
ATOM     34  C   ILE A   4     -21.176 -11.046  -3.462  1.00  0.00     0.243 C 
ATOM     35  N   ARG A   5     -21.501 -11.137  -4.843  1.00  0.00    -0.343 N 
ATOM     36  O   ILE A   4     -21.998 -10.546  -2.649  1.00  0.00    -0.273 OA
ATOM     37  H   UNL     1     -21.064 -11.908  -5.395  1.00  0.00     0.164 HD
BRANCH  35  38
ATOM     38  CA  ARG A   5     -22.678 -10.498  -5.391  1.00  0.00     0.171 C 
BRANCH  38  39
ATOM     39  C   ARG A   5     -23.897 -11.195  -4.888  1.00  0.00     0.243 C 
ATOM     40  N   ASN A   6     -24.981 -10.403  -4.433  1.00  0.00    -0.341 N 
ATOM     41  O   ARG A   5     -23.965 -12.455  -4.868  1.00  0.00    -0.273 OA
ATOM     42  H   UNL     1     -24.929  -9.364  -4.551  1.00  0.00     0.164 HD
BRANCH  40  43
ATOM     43  CA  ASN A   6     -26.189 -10.994  -3.883  1.00  0.00     0.201 C 
BRANCH  43  44
ATOM     44  C   ASN A   6     -27.052 -11.522  -4.997  1.00  0.00     0.326 C 
ATOM     45  O   ASN A   6     -27.151 -10.892  -6.084  1.00  0.00    -0.250 OA
BRANCH  44  46
ATOM     46  OXT ASN A   6     -27.773 -12.698  -4.811  1.00  0.00    -0.480 OA
ATOM     47  H   UNL     1     -28.370 -13.063  -5.543  1.00  0.00     0.296 HD
ENDBRANCH  44  46
ENDBRANCH  43  44
BRANCH  43  48
ATOM     48  CB  ASN A   6     -26.929  -9.934  -3.062  1.00  0.00     0.136 C 
BRANCH  48  49
ATOM     49  CG  ASN A   6     -28.019 -10.549  -2.252  1.00  0.00     0.220 C 
ATOM     50  ND2 ASN A   6     -27.701 -11.241  -1.053  1.00  0.00    -0.370 N 
ATOM     51  OD1 ASN A   6     -29.213 -10.483  -2.643  1.00  0.00    -0.275 OA
ATOM     52  H   UNL     1     -26.712 -11.314  -0.724  1.00  0.00     0.159 HD
ATOM     53  H   UNL     1     -28.456 -11.688  -0.487  1.00  0.00     0.159 HD
ENDBRANCH  48  49
ENDBRANCH  43  48
ENDBRANCH  40  43
ENDBRANCH  38  39
BRANCH  38  54
ATOM     54  CB  ARG A   5     -22.647 -10.521  -6.919  1.00  0.00     0.037 C 
BRANCH  54  55
ATOM     55  CG  ARG A   5     -21.461  -9.717  -7.461  1.00  0.00     0.024 C 
BRANCH  55  56
ATOM     56  CD  ARG A   5     -21.602  -9.477  -8.964  1.00  0.00     0.116 C 
BRANCH  56  57
ATOM     57  NE  ARG A   5     -21.186  -8.116  -9.284  1.00  0.00    -0.357 N 
ATOM     58  CZ  ARG A   5     -20.072  -7.777 -10.106  1.00  0.00     0.185 C 
ATOM     59  NH2 ARG A   5     -19.198  -8.780 -10.616  1.00  0.00    -0.370 N 
ATOM     60  H   UNL     1     -21.765  -7.334  -8.899  1.00  0.00     0.163 HD
ATOM     61  H   UNL     1     -18.499  -8.537 -11.353  1.00  0.00     0.159 HD
ATOM     62  H   UNL     1     -19.092  -9.711 -10.161  1.00  0.00     0.159 HD
BRANCH  58  63
ATOM     63  NH1 ARG A   5     -19.855  -6.531 -10.387  1.00  0.00    -0.270 NA
ATOM     64  H   UNL     1     -19.050  -6.233 -10.981  1.00  0.00     0.191 HD
ENDBRANCH  58  63
ENDBRANCH  56  57
ENDBRANCH  55  56
ENDBRANCH  54  55
ENDBRANCH  38  54
ENDBRANCH  35  38
ENDBRANCH  33  34
BRANCH  33  65
ATOM     65  CB  ILE A   4     -19.643 -11.706  -1.496  1.00  0.00     0.018 C 
ATOM     66  CG1 ILE A   4     -20.048 -10.491  -0.631  1.00  0.00     0.010 C 
BRANCH  65  67
ATOM     67  CG2 ILE A   4     -20.313 -12.982  -0.963  1.00  0.00     0.002 C 
ATOM     68  CD1 ILE A   4     -19.616 -14.251  -1.456  1.00  0.00     0.004 C 
ENDBRANCH  65  67
ENDBRANCH  33  65
ENDBRANCH   3  33
TORSDOF 31
