REMARK SMILES CC(C)C[C@H](NC(=O)[C@H](CCCCN)NC(=O)[C@@H](N)CO)C(=O)N[C@@H](Cc1ccccc1)C(=O)N[C@@H](CCCNC(=N)N)C(=O)N[C@@H](CC(N)=O)C(=O)O
REMARK SMILES IDX 22 1 23 2 24 3 5 5 6 6 7 7 8 8 9 10 15 11 16 12 17 13 18 15
REMARK SMILES IDX 19 16 20 19 21 20 10 22 11 23 12 24 13 25 14 26 4 29 2 30
REMARK SMILES IDX 1 31 3 32 25 33 33 34 35 35 34 36 36 38 44 39 46 40 45 41
REMARK SMILES IDX 47 43 52 44 53 45 54 46 48 48 49 49 50 50 51 51 37 54 38 55
REMARK SMILES IDX 39 56 40 57 41 58 43 59 42 63 26 65 27 66 28 67 32 68 29 69
REMARK SMILES IDX 31 70 30 71
REMARK H PARENT 24 4 6 9 15 14 19 17 19 18 21 21 14 27 14 28 35 37 46 42 54 47
REMARK H PARENT 50 52 50 53 40 60 43 61 43 62 42 64
ROOT
ATOM      1  C   LEU A   3     -18.384 -10.554  -4.863  1.00  0.00     0.243 C 
ATOM      2  O   LEU A   3     -18.754 -11.409  -5.713  1.00  0.00    -0.273 OA
ATOM      3  N   PHE A   4     -18.838 -10.604  -3.514  1.00  0.00    -0.342 N 
ATOM      4  H   UNL     1     -18.555  -9.836  -2.863  1.00  0.00     0.164 HD
ENDROOT
BRANCH   1   5
ATOM      5  CA  LEU A   3     -17.452  -9.459  -5.243  1.00  0.00     0.171 C 
BRANCH   5   6
ATOM      6  N   LEU A   3     -16.212 -10.022  -5.736  1.00  0.00    -0.343 N 
ATOM      7  C   LYS A   2     -15.249 -10.557  -4.837  1.00  0.00     0.243 C 
ATOM      8  O   LYS A   2     -15.467 -10.582  -3.593  1.00  0.00    -0.273 OA
ATOM      9  H   UNL     1     -16.029 -10.056  -6.765  1.00  0.00     0.164 HD
BRANCH   7  10
ATOM     10  CA  LYS A   2     -13.969 -11.078  -5.395  1.00  0.00     0.171 C 
BRANCH  10  11
ATOM     11  N   LYS A   2     -12.853 -10.485  -4.674  1.00  0.00    -0.343 N 
ATOM     12  C   SER A   1     -12.604  -9.082  -4.714  1.00  0.00     0.239 C 
ATOM     13  O   SER A   1     -13.369  -8.314  -5.360  1.00  0.00    -0.273 OA
ATOM     14  H   UNL     1     -12.222 -11.091  -4.102  1.00  0.00     0.164 HD
BRANCH  12  15
ATOM     15  CA  SER A   1     -11.441  -8.536  -3.935  1.00  0.00     0.167 C 
BRANCH  15  16
ATOM     16  N   SER A   1     -10.847  -7.377  -4.605  1.00  0.00    -0.318 NA
ATOM     17  H   UNL     1     -11.576  -6.649  -4.789  1.00  0.00     0.119 HD
ATOM     18  H   UNL     1     -10.476  -7.683  -5.534  1.00  0.00     0.119 HD
ENDBRANCH  15  16
BRANCH  15  19
ATOM     19  CB  SER A   1     -11.843  -8.203  -2.486  1.00  0.00     0.184 C 
BRANCH  19  20
ATOM     20  OG  SER A   1     -12.057  -6.827  -2.328  1.00  0.00    -0.394 OA
ATOM     21  H   UNL     1     -12.317  -6.694  -1.379  1.00  0.00     0.210 HD
ENDBRANCH  19  20
ENDBRANCH  15  19
ENDBRANCH  12  15
ENDBRANCH  10  11
BRANCH  10  22
ATOM     22  CB  LYS A   2     -13.947 -12.611  -5.300  1.00  0.00     0.035 C 
BRANCH  22  23
ATOM     23  CG  LYS A   2     -12.853 -13.238  -6.175  1.00  0.00     0.004 C 
BRANCH  23  24
ATOM     24  CD  LYS A   2     -13.283 -13.372  -7.647  1.00  0.00     0.015 C 
BRANCH  24  25
ATOM     25  CE  LYS A   2     -12.143 -13.875  -8.550  1.00  0.00     0.077 C 
BRANCH  25  26
ATOM     26  NZ  LYS A   2     -11.773 -15.262  -8.267  1.00  0.00    -0.330 NA
ATOM     27  H   UNL     1     -12.636 -15.851  -8.227  1.00  0.00     0.118 HD
ATOM     28  H   UNL     1     -11.299 -15.310  -7.337  1.00  0.00     0.118 HD
ENDBRANCH  25  26
ENDBRANCH  24  25
ENDBRANCH  23  24
ENDBRANCH  22  23
ENDBRANCH  10  22
ENDBRANCH   7  10
ENDBRANCH   5   6
BRANCH   5  29
ATOM     29  CB  LEU A   3     -18.100  -8.527  -6.274  1.00  0.00     0.038 C 
BRANCH  29  30
ATOM     30  CG  LEU A   3     -17.543  -7.092  -6.222  1.00  0.00    -0.015 C 
ATOM     31  CD1 LEU A   3     -18.188  -6.264  -7.336  1.00  0.00     0.007 C 
ATOM     32  CD2 LEU A   3     -17.813  -6.424  -4.860  1.00  0.00     0.007 C 
ENDBRANCH  29  30
ENDBRANCH   5  29
ENDBRANCH   1   5
BRANCH   3  33
ATOM     33  CA  PHE A   4     -19.822 -11.560  -3.040  1.00  0.00     0.175 C 
BRANCH  33  34
ATOM     34  C   PHE A   4     -21.170 -11.064  -3.459  1.00  0.00     0.243 C 
ATOM     35  N   ARG A   5     -21.502 -11.143  -4.839  1.00  0.00    -0.343 N 
ATOM     36  O   PHE A   4     -21.969 -10.543  -2.635  1.00  0.00    -0.273 OA
ATOM     37  H   UNL     1     -21.064 -11.908  -5.399  1.00  0.00     0.164 HD
BRANCH  35  38
ATOM     38  CA  ARG A   5     -22.677 -10.498  -5.385  1.00  0.00     0.171 C 
BRANCH  38  39
ATOM     39  C   ARG A   5     -23.896 -11.195  -4.885  1.00  0.00     0.243 C 
ATOM     40  N   ASN A   6     -24.981 -10.402  -4.433  1.00  0.00    -0.341 N 
ATOM     41  O   ARG A   5     -23.965 -12.455  -4.867  1.00  0.00    -0.273 OA
ATOM     42  H   UNL     1     -24.930  -9.364  -4.552  1.00  0.00     0.164 HD
BRANCH  40  43
ATOM     43  CA  ASN A   6     -26.189 -10.994  -3.883  1.00  0.00     0.201 C 
BRANCH  43  44
ATOM     44  C   ASN A   6     -27.052 -11.522  -4.997  1.00  0.00     0.326 C 
ATOM     45  O   ASN A   6     -27.151 -10.892  -6.084  1.00  0.00    -0.250 OA
BRANCH  44  46
ATOM     46  OXT ASN A   6     -27.772 -12.698  -4.811  1.00  0.00    -0.480 OA
ATOM     47  H   UNL     1     -28.369 -13.063  -5.543  1.00  0.00     0.296 HD
ENDBRANCH  44  46
ENDBRANCH  43  44
BRANCH  43  48
ATOM     48  CB  ASN A   6     -26.929  -9.934  -3.062  1.00  0.00     0.136 C 
BRANCH  48  49
ATOM     49  CG  ASN A   6     -28.019 -10.549  -2.252  1.00  0.00     0.220 C 
ATOM     50  ND2 ASN A   6     -27.701 -11.242  -1.053  1.00  0.00    -0.370 N 
ATOM     51  OD1 ASN A   6     -29.213 -10.483  -2.642  1.00  0.00    -0.275 OA
ATOM     52  H   UNL     1     -28.456 -11.688  -0.487  1.00  0.00     0.159 HD
ATOM     53  H   UNL     1     -26.712 -11.315  -0.725  1.00  0.00     0.159 HD
ENDBRANCH  48  49
ENDBRANCH  43  48
ENDBRANCH  40  43
ENDBRANCH  38  39
BRANCH  38  54
ATOM     54  CB  ARG A   5     -22.647 -10.519  -6.915  1.00  0.00     0.037 C 
BRANCH  54  55
ATOM     55  CG  ARG A   5     -21.461  -9.717  -7.458  1.00  0.00     0.024 C 
BRANCH  55  56
ATOM     56  CD  ARG A   5     -21.602  -9.477  -8.963  1.00  0.00     0.116 C 
BRANCH  56  57
ATOM     57  NE  ARG A   5     -21.186  -8.116  -9.283  1.00  0.00    -0.357 N 
ATOM     58  CZ  ARG A   5     -20.073  -7.777 -10.106  1.00  0.00     0.185 C 
ATOM     59  NH2 ARG A   5     -19.198  -8.780 -10.616  1.00  0.00    -0.370 N 
ATOM     60  H   UNL     1     -21.765  -7.335  -8.899  1.00  0.00     0.163 HD
ATOM     61  H   UNL     1     -19.093  -9.712 -10.162  1.00  0.00     0.159 HD
ATOM     62  H   UNL     1     -18.499  -8.537 -11.353  1.00  0.00     0.159 HD
BRANCH  58  63
ATOM     63  NH1 ARG A   5     -19.856  -6.532 -10.386  1.00  0.00    -0.270 NA
ATOM     64  H   UNL     1     -19.051  -6.233 -10.981  1.00  0.00     0.191 HD
ENDBRANCH  58  63
ENDBRANCH  56  57
ENDBRANCH  55  56
ENDBRANCH  54  55
ENDBRANCH  38  54
ENDBRANCH  35  38
ENDBRANCH  33  34
BRANCH  33  65
ATOM     65  CB  PHE A   4     -19.670 -11.710  -1.515  1.00  0.00     0.070 C 
BRANCH  65  66
ATOM     66  CG  PHE A   4     -20.337 -12.951  -0.986  1.00  0.00    -0.045 A 
ATOM     67  CD1 PHE A   4     -21.602 -12.876  -0.378  1.00  0.00     0.004 A 
ATOM     68  CD2 PHE A   4     -19.720 -14.205  -1.137  1.00  0.00     0.004 A 
ATOM     69  CE1 PHE A   4     -22.232 -14.037   0.081  1.00  0.00     0.000 A 
ATOM     70  CE2 PHE A   4     -20.354 -15.362  -0.676  1.00  0.00     0.000 A 
ATOM     71  CZ  PHE A   4     -21.609 -15.279  -0.067  1.00  0.00     0.000 A 
ENDBRANCH  65  66
ENDBRANCH  33  65
ENDBRANCH   3  33
TORSDOF 31
