REMARK SMILES CC(C)C[C@H](NC(=O)[C@H](Cc1ccccc1)NC(=O)[C@H](CC(N)=O)NC(=O)[C@@H](N)CO)C(=O)N[C@@H](CCCNC(=N)N)C(=O)N[C@@H](CC(N)=O)C(=O)O
REMARK SMILES IDX 7 1 8 2 6 3 9 5 17 6 18 7 19 8 20 10 25 11 26 12 27 13 28 15
REMARK SMILES IDX 29 16 30 19 31 20 21 22 22 23 23 24 24 25 10 28 11 29 12 30
REMARK SMILES IDX 16 31 13 32 15 33 14 34 5 35 32 36 34 37 33 38 35 40 43 41
REMARK SMILES IDX 45 42 44 43 46 45 51 46 52 47 53 48 47 50 48 51 49 52 50 53
REMARK SMILES IDX 36 56 37 57 38 58 39 59 40 60 42 61 41 65 4 67 2 68 1 69
REMARK SMILES IDX 3 70
REMARK H PARENT 6 4 17 9 25 14 29 17 29 18 31 21 23 26 23 27 34 39 45 44 53 49
REMARK H PARENT 49 54 49 55 39 62 42 63 42 64 41 66
ROOT
ATOM      1  C   PHE A   3     -18.385 -10.527  -4.871  1.00  0.00     0.243 C 
ATOM      2  O   PHE A   3     -18.745 -11.392  -5.716  1.00  0.00    -0.273 OA
ATOM      3  N   LEU A   4     -18.844 -10.572  -3.526  1.00  0.00    -0.343 N 
ATOM      4  H   UNL     1     -18.582  -9.788  -2.884  1.00  0.00     0.164 HD
ENDROOT
BRANCH   1   5
ATOM      5  CA  PHE A   3     -17.453  -9.428  -5.254  1.00  0.00     0.175 C 
BRANCH   5   6
ATOM      6  N   PHE A   3     -16.210 -10.001  -5.737  1.00  0.00    -0.342 N 
ATOM      7  C   ASN A   2     -15.253 -10.551  -4.838  1.00  0.00     0.243 C 
ATOM      8  O   ASN A   2     -15.474 -10.579  -3.595  1.00  0.00    -0.273 OA
ATOM      9  H   UNL     1     -16.021 -10.032  -6.765  1.00  0.00     0.164 HD
BRANCH   7  10
ATOM     10  CA  ASN A   2     -13.971 -11.080  -5.396  1.00  0.00     0.180 C 
BRANCH  10  11
ATOM     11  N   ASN A   2     -12.853 -10.488  -4.677  1.00  0.00    -0.342 N 
ATOM     12  C   SER A   1     -12.600  -9.084  -4.710  1.00  0.00     0.239 C 
ATOM     13  O   SER A   1     -13.361  -8.309  -5.355  1.00  0.00    -0.273 OA
ATOM     14  H   UNL     1     -12.220 -11.098  -4.110  1.00  0.00     0.164 HD
BRANCH  12  15
ATOM     15  CA  SER A   1     -11.434  -8.546  -3.934  1.00  0.00     0.167 C 
BRANCH  15  16
ATOM     16  N   SER A   1     -10.867  -7.379  -4.609  1.00  0.00    -0.318 NA
ATOM     17  H   UNL     1     -10.003  -7.091  -4.094  1.00  0.00     0.119 HD
ATOM     18  H   UNL     1     -10.547  -7.673  -5.561  1.00  0.00     0.119 HD
ENDBRANCH  15  16
BRANCH  15  19
ATOM     19  CB  SER A   1     -11.844  -8.207  -2.487  1.00  0.00     0.184 C 
BRANCH  19  20
ATOM     20  OG  SER A   1     -12.061  -6.829  -2.340  1.00  0.00    -0.394 OA
ATOM     21  H   UNL     1     -12.323  -6.690  -1.392  1.00  0.00     0.210 HD
ENDBRANCH  19  20
ENDBRANCH  15  19
ENDBRANCH  12  15
ENDBRANCH  10  11
BRANCH  10  22
ATOM     22  CB  ASN A   2     -13.951 -12.612  -5.300  1.00  0.00     0.134 C 
BRANCH  22  23
ATOM     23  CG  ASN A   2     -12.870 -13.199  -6.159  1.00  0.00     0.220 C 
ATOM     24  ND2 ASN A   2     -13.069 -13.359  -7.563  1.00  0.00    -0.370 N 
ATOM     25  OD1 ASN A   2     -11.766 -13.522  -5.643  1.00  0.00    -0.275 OA
ATOM     26  H   UNL     1     -12.311 -13.755  -8.161  1.00  0.00     0.159 HD
ATOM     27  H   UNL     1     -13.971 -13.077  -8.008  1.00  0.00     0.159 HD
ENDBRANCH  22  23
ENDBRANCH  10  22
ENDBRANCH   7  10
ENDBRANCH   5   6
BRANCH   5  28
ATOM     28  CB  PHE A   3     -18.097  -8.509  -6.301  1.00  0.00     0.070 C 
BRANCH  28  29
ATOM     29  CG  PHE A   3     -17.497  -7.128  -6.261  1.00  0.00    -0.045 A 
ATOM     30  CD1 PHE A   3     -16.379  -6.824  -7.056  1.00  0.00     0.004 A 
ATOM     31  CD2 PHE A   3     -18.005  -6.155  -5.384  1.00  0.00     0.004 A 
ATOM     32  CE1 PHE A   3     -15.792  -5.557  -6.988  1.00  0.00     0.000 A 
ATOM     33  CE2 PHE A   3     -17.415  -4.888  -5.321  1.00  0.00     0.000 A 
ATOM     34  CZ  PHE A   3     -16.310  -4.589  -6.123  1.00  0.00     0.000 A 
ENDBRANCH  28  29
ENDBRANCH   5  28
ENDBRANCH   1   5
BRANCH   3  35
ATOM     35  CA  LEU A   4     -19.814 -11.540  -3.056  1.00  0.00     0.171 C 
BRANCH  35  36
ATOM     36  C   LEU A   4     -21.168 -11.059  -3.464  1.00  0.00     0.243 C 
ATOM     37  N   ARG A   5     -21.504 -11.141  -4.843  1.00  0.00    -0.343 N 
ATOM     38  O   LEU A   4     -21.971 -10.550  -2.634  1.00  0.00    -0.273 OA
ATOM     39  H   UNL     1     -21.059 -11.899  -5.406  1.00  0.00     0.164 HD
BRANCH  37  40
ATOM     40  CA  ARG A   5     -22.679 -10.497  -5.387  1.00  0.00     0.171 C 
BRANCH  40  41
ATOM     41  C   ARG A   5     -23.897 -11.195  -4.886  1.00  0.00     0.243 C 
ATOM     42  N   ASN A   6     -24.982 -10.402  -4.433  1.00  0.00    -0.341 N 
ATOM     43  O   ARG A   5     -23.966 -12.455  -4.868  1.00  0.00    -0.273 OA
ATOM     44  H   UNL     1     -24.931  -9.364  -4.552  1.00  0.00     0.164 HD
BRANCH  42  45
ATOM     45  CA  ASN A   6     -26.189 -10.994  -3.883  1.00  0.00     0.201 C 
BRANCH  45  46
ATOM     46  C   ASN A   6     -27.053 -11.522  -4.997  1.00  0.00     0.326 C 
ATOM     47  O   ASN A   6     -27.151 -10.892  -6.084  1.00  0.00    -0.250 OA
BRANCH  46  48
ATOM     48  OXT ASN A   6     -27.773 -12.698  -4.811  1.00  0.00    -0.480 OA
ATOM     49  H   UNL     1     -28.370 -13.063  -5.543  1.00  0.00     0.296 HD
ENDBRANCH  46  48
ENDBRANCH  45  46
BRANCH  45  50
ATOM     50  CB  ASN A   6     -26.930  -9.934  -3.062  1.00  0.00     0.136 C 
BRANCH  50  51
ATOM     51  CG  ASN A   6     -28.019 -10.549  -2.252  1.00  0.00     0.220 C 
ATOM     52  ND2 ASN A   6     -27.701 -11.241  -1.053  1.00  0.00    -0.370 N 
ATOM     53  OD1 ASN A   6     -29.213 -10.484  -2.643  1.00  0.00    -0.275 OA
ATOM     54  H   UNL     1     -26.713 -11.314  -0.724  1.00  0.00     0.159 HD
ATOM     55  H   UNL     1     -28.456 -11.688  -0.487  1.00  0.00     0.159 HD
ENDBRANCH  50  51
ENDBRANCH  45  50
ENDBRANCH  42  45
ENDBRANCH  40  41
BRANCH  40  56
ATOM     56  CB  ARG A   5     -22.649 -10.518  -6.916  1.00  0.00     0.037 C 
BRANCH  56  57
ATOM     57  CG  ARG A   5     -21.462  -9.717  -7.459  1.00  0.00     0.024 C 
BRANCH  57  58
ATOM     58  CD  ARG A   5     -21.602  -9.478  -8.963  1.00  0.00     0.116 C 
BRANCH  58  59
ATOM     59  NE  ARG A   5     -21.186  -8.116  -9.284  1.00  0.00    -0.357 N 
ATOM     60  CZ  ARG A   5     -20.069  -7.777 -10.102  1.00  0.00     0.185 C 
ATOM     61  NH2 ARG A   5     -19.197  -8.780 -10.616  1.00  0.00    -0.370 N 
ATOM     62  H   UNL     1     -21.767  -7.335  -8.902  1.00  0.00     0.163 HD
ATOM     63  H   UNL     1     -18.498  -8.536 -11.352  1.00  0.00     0.159 HD
ATOM     64  H   UNL     1     -19.096  -9.715 -10.168  1.00  0.00     0.159 HD
BRANCH  60  65
ATOM     65  NH1 ARG A   5     -19.849  -6.531 -10.378  1.00  0.00    -0.270 NA
ATOM     66  H   UNL     1     -19.042  -6.232 -10.971  1.00  0.00     0.191 HD
ENDBRANCH  60  65
ENDBRANCH  58  59
ENDBRANCH  57  58
ENDBRANCH  56  57
ENDBRANCH  40  56
ENDBRANCH  37  40
ENDBRANCH  35  36
BRANCH  35  67
ATOM     67  CB  LEU A   4     -19.651 -11.690  -1.535  1.00  0.00     0.038 C 
BRANCH  67  68
ATOM     68  CG  LEU A   4     -20.295 -12.955  -0.947  1.00  0.00    -0.015 C 
ATOM     69  CD1 LEU A   4     -19.611 -14.232  -1.462  1.00  0.00     0.007 C 
ATOM     70  CD2 LEU A   4     -20.194 -12.897   0.582  1.00  0.00     0.007 C 
ENDBRANCH  67  68
ENDBRANCH  35  67
ENDBRANCH   3  35
TORSDOF 28
