REMARK SMILES CC(C)C[C@H](NC(=O)CNC(=O)[C@H](Cc1ccccc1)NC(=O)[C@@H](N)CO)C(=O)N[C@@H](CCCNC(=N)N)C(=O)N[C@@H](Cc1c[nH]cn1)C(=O)O
REMARK SMILES IDX 7 1 8 2 6 3 9 5 10 6 11 7 12 8 13 10 21 11 22 12 23 13 24 15
REMARK SMILES IDX 25 16 26 19 27 20 14 22 15 23 16 24 20 25 17 26 19 27 18 28
REMARK SMILES IDX 5 29 28 30 30 31 29 32 31 34 39 35 41 36 40 37 42 39 49 40
REMARK SMILES IDX 50 41 51 42 43 44 44 45 48 46 45 47 47 48 46 49 32 51 33 52
REMARK SMILES IDX 34 53 35 54 36 55 38 56 37 60 4 62 2 63 1 64 3 65
REMARK H PARENT 6 4 10 9 21 14 25 17 25 18 27 21 30 33 41 38 51 43 46 50 35 57
REMARK H PARENT 38 58 38 59 37 61
ROOT
ATOM      1  C   GLY A   3     -18.395 -10.525  -4.883  1.00  0.00     0.240 C 
ATOM      2  O   GLY A   3     -18.757 -11.400  -5.715  1.00  0.00    -0.273 OA
ATOM      3  N   LEU A   4     -18.834 -10.568  -3.531  1.00  0.00    -0.343 N 
ATOM      4  H   UNL     1     -18.540  -9.796  -2.889  1.00  0.00     0.164 HD
ENDROOT
BRANCH   1   5
ATOM      5  CA  GLY A   3     -17.480  -9.434  -5.302  1.00  0.00     0.216 C 
BRANCH   5   6
ATOM      6  N   GLY A   3     -16.221  -9.999  -5.736  1.00  0.00    -0.345 N 
ATOM      7  C   PHE A   2     -15.266 -10.537  -4.827  1.00  0.00     0.243 C 
ATOM      8  O   PHE A   2     -15.494 -10.567  -3.586  1.00  0.00    -0.273 OA
ATOM      9  H   UNL     1     -16.015  -9.992  -6.761  1.00  0.00     0.164 HD
BRANCH   7  10
ATOM     10  CA  PHE A   2     -13.983 -11.058  -5.380  1.00  0.00     0.175 C 
BRANCH  10  11
ATOM     11  N   PHE A   2     -12.862 -10.481  -4.657  1.00  0.00    -0.343 N 
ATOM     12  C   SER A   1     -12.600  -9.080  -4.705  1.00  0.00     0.239 C 
ATOM     13  O   SER A   1     -13.359  -8.309  -5.356  1.00  0.00    -0.273 OA
ATOM     14  H   UNL     1     -12.229 -11.099  -4.098  1.00  0.00     0.164 HD
BRANCH  12  15
ATOM     15  CA  SER A   1     -11.437  -8.537  -3.932  1.00  0.00     0.167 C 
BRANCH  15  16
ATOM     16  N   SER A   1     -10.847  -7.391  -4.625  1.00  0.00    -0.318 NA
ATOM     17  H   UNL     1     -10.029  -7.044  -4.072  1.00  0.00     0.119 HD
ATOM     18  H   UNL     1     -11.537  -6.609  -4.703  1.00  0.00     0.119 HD
ENDBRANCH  15  16
BRANCH  15  19
ATOM     19  CB  SER A   1     -11.839  -8.201  -2.481  1.00  0.00     0.184 C 
BRANCH  19  20
ATOM     20  OG  SER A   1     -12.068  -6.828  -2.314  1.00  0.00    -0.394 OA
ATOM     21  H   UNL     1     -12.986  -6.655  -2.649  1.00  0.00     0.210 HD
ENDBRANCH  19  20
ENDBRANCH  15  19
ENDBRANCH  12  15
ENDBRANCH  10  11
BRANCH  10  22
ATOM     22  CB  PHE A   2     -13.968 -12.594  -5.325  1.00  0.00     0.070 C 
BRANCH  22  23
ATOM     23  CG  PHE A   2     -12.884 -13.197  -6.182  1.00  0.00    -0.045 A 
ATOM     24  CD1 PHE A   2     -12.723 -12.806  -7.525  1.00  0.00     0.004 A 
ATOM     25  CD2 PHE A   2     -12.093 -14.242  -5.681  1.00  0.00     0.004 A 
ATOM     26  CE1 PHE A   2     -11.748 -13.398  -8.323  1.00  0.00     0.000 A 
ATOM     27  CE2 PHE A   2     -11.135 -14.853  -6.495  1.00  0.00     0.000 A 
ATOM     28  CZ  PHE A   2     -10.956 -14.423  -7.810  1.00  0.00     0.000 A 
ENDBRANCH  22  23
ENDBRANCH  10  22
ENDBRANCH   7  10
ENDBRANCH   5   6
ENDBRANCH   1   5
BRANCH   3  29
ATOM     29  CA  LEU A   4     -19.808 -11.534  -3.055  1.00  0.00     0.171 C 
BRANCH  29  30
ATOM     30  C   LEU A   4     -21.165 -11.055  -3.463  1.00  0.00     0.243 C 
ATOM     31  N   ARG A   5     -21.506 -11.140  -4.840  1.00  0.00    -0.343 N 
ATOM     32  O   LEU A   4     -21.968 -10.548  -2.633  1.00  0.00    -0.273 OA
ATOM     33  H   UNL     1     -21.069 -11.906  -5.400  1.00  0.00     0.164 HD
BRANCH  31  34
ATOM     34  CA  ARG A   5     -22.681 -10.495  -5.384  1.00  0.00     0.171 C 
BRANCH  34  35
ATOM     35  C   ARG A   5     -23.900 -11.194  -4.883  1.00  0.00     0.243 C 
ATOM     36  N   HIS A   6     -24.985 -10.405  -4.422  1.00  0.00    -0.341 N 
ATOM     37  O   ARG A   5     -23.967 -12.454  -4.869  1.00  0.00    -0.273 OA
ATOM     38  H   UNL     1     -24.933  -9.365  -4.529  1.00  0.00     0.164 HD
BRANCH  36  39
ATOM     39  CA  HIS A   6     -26.193 -11.003  -3.875  1.00  0.00     0.198 C 
BRANCH  39  40
ATOM     40  C   HIS A   6     -27.057 -11.521  -4.993  1.00  0.00     0.326 C 
ATOM     41  O   HIS A   6     -27.149 -10.889  -6.080  1.00  0.00    -0.250 OA
BRANCH  40  42
ATOM     42  OXT HIS A   6     -27.787 -12.692  -4.811  1.00  0.00    -0.480 OA
ATOM     43  H   UNL     1     -28.387 -13.050  -5.544  1.00  0.00     0.296 HD
ENDBRANCH  40  42
ENDBRANCH  39  40
BRANCH  39  44
ATOM     44  CB  HIS A   6     -26.932  -9.956  -3.032  1.00  0.00     0.094 C 
BRANCH  44  45
ATOM     45  CG  HIS A   6     -28.043 -10.574  -2.243  1.00  0.00     0.061 A 
ATOM     46  ND1 HIS A   6     -27.865 -11.233  -1.080  1.00  0.00    -0.242 NA
ATOM     47  CD2 HIS A   6     -29.368 -10.629  -2.615  1.00  0.00     0.107 A 
ATOM     48  CE1 HIS A   6     -29.104 -11.665  -0.761  1.00  0.00     0.196 A 
ATOM     49  NE2 HIS A   6     -30.031 -11.315  -1.673  1.00  0.00    -0.351 N 
ATOM     50  H   UNL     1     -31.050 -11.538  -1.655  1.00  0.00     0.167 HD
ENDBRANCH  44  45
ENDBRANCH  39  44
ENDBRANCH  36  39
ENDBRANCH  34  35
BRANCH  34  51
ATOM     51  CB  ARG A   5     -22.649 -10.514  -6.913  1.00  0.00     0.037 C 
BRANCH  51  52
ATOM     52  CG  ARG A   5     -21.456  -9.718  -7.457  1.00  0.00     0.024 C 
BRANCH  52  53
ATOM     53  CD  ARG A   5     -21.601  -9.477  -8.961  1.00  0.00     0.116 C 
BRANCH  53  54
ATOM     54  NE  ARG A   5     -21.186  -8.116  -9.283  1.00  0.00    -0.357 N 
ATOM     55  CZ  ARG A   5     -20.071  -7.777 -10.104  1.00  0.00     0.185 C 
ATOM     56  NH2 ARG A   5     -19.200  -8.781 -10.620  1.00  0.00    -0.370 N 
ATOM     57  H   UNL     1     -21.767  -7.335  -8.901  1.00  0.00     0.163 HD
ATOM     58  H   UNL     1     -18.501  -8.536 -11.357  1.00  0.00     0.159 HD
ATOM     59  H   UNL     1     -19.102  -9.718 -10.177  1.00  0.00     0.159 HD
BRANCH  55  60
ATOM     60  NH1 ARG A   5     -19.851  -6.531 -10.380  1.00  0.00    -0.270 NA
ATOM     61  H   UNL     1     -19.046  -6.232 -10.975  1.00  0.00     0.191 HD
ENDBRANCH  55  60
ENDBRANCH  53  54
ENDBRANCH  52  53
ENDBRANCH  51  52
ENDBRANCH  34  51
ENDBRANCH  31  34
ENDBRANCH  29  30
BRANCH  29  62
ATOM     62  CB  LEU A   4     -19.646 -11.686  -1.535  1.00  0.00     0.038 C 
BRANCH  62  63
ATOM     63  CG  LEU A   4     -20.293 -12.951  -0.948  1.00  0.00    -0.015 C 
ATOM     64  CD1 LEU A   4     -19.611 -14.229  -1.463  1.00  0.00     0.007 C 
ATOM     65  CD2 LEU A   4     -20.194 -12.896   0.581  1.00  0.00     0.007 C 
ENDBRANCH  62  63
ENDBRANCH  29  62
ENDBRANCH   3  29
TORSDOF 26
