REMARK SMILES CC(C)C[C@H](NC(=O)CNC(=O)[C@H](Cc1ccccc1)NC(=O)[C@@H](N)Cc1c[nH]cn1)C(=O)N[C@@H](CCCNC(=N)N)C(=O)N[C@@H](CC(N)=O)C(=O)O
REMARK SMILES IDX 7 1 8 2 6 3 9 5 10 6 11 7 12 8 13 10 21 11 22 12 23 13 24 15
REMARK SMILES IDX 25 16 26 19 27 20 31 21 28 22 30 23 29 24 14 26 15 27 16 28
REMARK SMILES IDX 20 29 17 30 19 31 18 32 5 33 32 34 34 35 33 36 35 38 43 39
REMARK SMILES IDX 45 40 44 41 46 43 51 44 52 45 53 46 47 48 48 49 49 50 50 51
REMARK SMILES IDX 36 54 37 55 38 56 39 57 40 58 42 59 41 63 4 65 2 66 1 67
REMARK SMILES IDX 3 68
REMARK H PARENT 6 4 10 9 21 14 25 17 25 18 29 25 34 37 45 42 53 47 49 52 49 53
REMARK H PARENT 39 60 42 61 42 62 41 64
ROOT
ATOM      1  C   GLY A   3     -18.394 -10.524  -4.882  1.00  0.00     0.240 C 
ATOM      2  O   GLY A   3     -18.756 -11.399  -5.715  1.00  0.00    -0.273 OA
ATOM      3  N   LEU A   4     -18.833 -10.567  -3.530  1.00  0.00    -0.343 N 
ATOM      4  H   UNL     1     -18.538  -9.796  -2.888  1.00  0.00     0.164 HD
ENDROOT
BRANCH   1   5
ATOM      5  CA  GLY A   3     -17.479  -9.433  -5.301  1.00  0.00     0.216 C 
BRANCH   5   6
ATOM      6  N   GLY A   3     -16.220  -9.998  -5.735  1.00  0.00    -0.345 N 
ATOM      7  C   PHE A   2     -15.265 -10.537  -4.826  1.00  0.00     0.243 C 
ATOM      8  O   PHE A   2     -15.493 -10.567  -3.585  1.00  0.00    -0.273 OA
ATOM      9  H   UNL     1     -16.014  -9.991  -6.760  1.00  0.00     0.164 HD
BRANCH   7  10
ATOM     10  CA  PHE A   2     -13.983 -11.060  -5.381  1.00  0.00     0.175 C 
BRANCH  10  11
ATOM     11  N   PHE A   2     -12.859 -10.487  -4.659  1.00  0.00    -0.343 N 
ATOM     12  C   HIS A   1     -12.594  -9.088  -4.712  1.00  0.00     0.237 C 
ATOM     13  O   HIS A   1     -13.349  -8.316  -5.368  1.00  0.00    -0.273 OA
ATOM     14  H   UNL     1     -12.228 -11.104  -4.098  1.00  0.00     0.164 HD
BRANCH  12  15
ATOM     15  CA  HIS A   1     -11.444  -8.539  -3.923  1.00  0.00     0.147 C 
BRANCH  15  16
ATOM     16  N   HIS A   1     -10.894  -7.355  -4.579  1.00  0.00    -0.320 NA
ATOM     17  H   UNL     1     -10.058  -7.034  -4.037  1.00  0.00     0.119 HD
ATOM     18  H   UNL     1     -10.535  -7.637  -5.521  1.00  0.00     0.119 HD
ENDBRANCH  15  16
BRANCH  15  19
ATOM     19  CB  HIS A   1     -11.881  -8.220  -2.483  1.00  0.00     0.086 C 
BRANCH  19  20
ATOM     20  CG  HIS A   1     -12.989  -7.208  -2.421  1.00  0.00     0.060 A 
ATOM     21  ND1 HIS A   1     -14.299  -7.528  -2.396  1.00  0.00    -0.242 NA
ATOM     22  CD2 HIS A   1     -12.842  -5.840  -2.460  1.00  0.00     0.107 A 
ATOM     23  CE1 HIS A   1     -14.925  -6.333  -2.408  1.00  0.00     0.196 A 
ATOM     24  NE2 HIS A   1     -14.068  -5.295  -2.447  1.00  0.00    -0.351 N 
ATOM     25  H   UNL     1     -14.307  -4.279  -2.471  1.00  0.00     0.167 HD
ENDBRANCH  19  20
ENDBRANCH  15  19
ENDBRANCH  12  15
ENDBRANCH  10  11
BRANCH  10  26
ATOM     26  CB  PHE A   2     -13.970 -12.596  -5.326  1.00  0.00     0.070 C 
BRANCH  26  27
ATOM     27  CG  PHE A   2     -12.885 -13.198  -6.183  1.00  0.00    -0.045 A 
ATOM     28  CD1 PHE A   2     -12.724 -12.806  -7.525  1.00  0.00     0.004 A 
ATOM     29  CD2 PHE A   2     -12.093 -14.243  -5.681  1.00  0.00     0.004 A 
ATOM     30  CE1 PHE A   2     -11.748 -13.398  -8.323  1.00  0.00     0.000 A 
ATOM     31  CE2 PHE A   2     -11.134 -14.853  -6.494  1.00  0.00     0.000 A 
ATOM     32  CZ  PHE A   2     -10.955 -14.423  -7.810  1.00  0.00     0.000 A 
ENDBRANCH  26  27
ENDBRANCH  10  26
ENDBRANCH   7  10
ENDBRANCH   5   6
ENDBRANCH   1   5
BRANCH   3  33
ATOM     33  CA  LEU A   4     -19.808 -11.534  -3.055  1.00  0.00     0.171 C 
BRANCH  33  34
ATOM     34  C   LEU A   4     -21.165 -11.056  -3.463  1.00  0.00     0.243 C 
ATOM     35  N   ARG A   5     -21.504 -11.142  -4.841  1.00  0.00    -0.343 N 
ATOM     36  O   LEU A   4     -21.968 -10.548  -2.633  1.00  0.00    -0.273 OA
ATOM     37  H   UNL     1     -21.067 -11.909  -5.400  1.00  0.00     0.164 HD
BRANCH  35  38
ATOM     38  CA  ARG A   5     -22.678 -10.497  -5.385  1.00  0.00     0.171 C 
BRANCH  38  39
ATOM     39  C   ARG A   5     -23.897 -11.194  -4.885  1.00  0.00     0.243 C 
ATOM     40  N   ASN A   6     -24.982 -10.402  -4.433  1.00  0.00    -0.341 N 
ATOM     41  O   ARG A   5     -23.965 -12.455  -4.868  1.00  0.00    -0.273 OA
ATOM     42  H   UNL     1     -24.931  -9.364  -4.552  1.00  0.00     0.164 HD
BRANCH  40  43
ATOM     43  CA  ASN A   6     -26.189 -10.994  -3.883  1.00  0.00     0.201 C 
BRANCH  43  44
ATOM     44  C   ASN A   6     -27.052 -11.522  -4.997  1.00  0.00     0.326 C 
ATOM     45  O   ASN A   6     -27.151 -10.892  -6.084  1.00  0.00    -0.250 OA
BRANCH  44  46
ATOM     46  OXT ASN A   6     -27.773 -12.698  -4.811  1.00  0.00    -0.480 OA
ATOM     47  H   UNL     1     -28.370 -13.063  -5.543  1.00  0.00     0.296 HD
ENDBRANCH  44  46
ENDBRANCH  43  44
BRANCH  43  48
ATOM     48  CB  ASN A   6     -26.930  -9.934  -3.062  1.00  0.00     0.136 C 
BRANCH  48  49
ATOM     49  CG  ASN A   6     -28.019 -10.549  -2.252  1.00  0.00     0.220 C 
ATOM     50  ND2 ASN A   6     -27.701 -11.241  -1.053  1.00  0.00    -0.370 N 
ATOM     51  OD1 ASN A   6     -29.213 -10.484  -2.643  1.00  0.00    -0.275 OA
ATOM     52  H   UNL     1     -26.713 -11.314  -0.724  1.00  0.00     0.159 HD
ATOM     53  H   UNL     1     -28.456 -11.688  -0.487  1.00  0.00     0.159 HD
ENDBRANCH  48  49
ENDBRANCH  43  48
ENDBRANCH  40  43
ENDBRANCH  38  39
BRANCH  38  54
ATOM     54  CB  ARG A   5     -22.647 -10.515  -6.914  1.00  0.00     0.037 C 
BRANCH  54  55
ATOM     55  CG  ARG A   5     -21.455  -9.720  -7.457  1.00  0.00     0.024 C 
BRANCH  55  56
ATOM     56  CD  ARG A   5     -21.601  -9.480  -8.962  1.00  0.00     0.116 C 
BRANCH  56  57
ATOM     57  NE  ARG A   5     -21.190  -8.118  -9.283  1.00  0.00    -0.357 N 
ATOM     58  CZ  ARG A   5     -20.073  -7.775 -10.102  1.00  0.00     0.185 C 
ATOM     59  NH2 ARG A   5     -19.201  -8.774 -10.619  1.00  0.00    -0.370 N 
ATOM     60  H   UNL     1     -21.777  -7.343  -8.896  1.00  0.00     0.163 HD
ATOM     61  H   UNL     1     -18.494  -8.516 -11.344  1.00  0.00     0.159 HD
ATOM     62  H   UNL     1     -19.105  -9.716 -10.185  1.00  0.00     0.159 HD
BRANCH  58  63
ATOM     63  NH1 ARG A   5     -19.842  -6.532 -10.386  1.00  0.00    -0.270 NA
ATOM     64  H   UNL     1     -20.452  -5.762 -10.032  1.00  0.00     0.191 HD
ENDBRANCH  58  63
ENDBRANCH  56  57
ENDBRANCH  55  56
ENDBRANCH  54  55
ENDBRANCH  38  54
ENDBRANCH  35  38
ENDBRANCH  33  34
BRANCH  33  65
ATOM     65  CB  LEU A   4     -19.646 -11.686  -1.535  1.00  0.00     0.038 C 
BRANCH  65  66
ATOM     66  CG  LEU A   4     -20.293 -12.951  -0.948  1.00  0.00    -0.015 C 
ATOM     67  CD1 LEU A   4     -19.611 -14.229  -1.463  1.00  0.00     0.007 C 
ATOM     68  CD2 LEU A   4     -20.194 -12.896   0.581  1.00  0.00     0.007 C 
ENDBRANCH  65  66
ENDBRANCH  33  65
ENDBRANCH   3  33
TORSDOF 26
