REMARK SMILES CC(C)[C@H](NC(=O)[C@H](Cc1ccccc1)NC(=O)[C@@H](N)CO)C(=O)N[C@@H](C)C(=O)N[C@@H](CCCNC(=N)N)C(=O)N[C@@H](CC(N)=O)C(=O)O
REMARK SMILES IDX 23 1 24 2 25 3 4 5 5 6 6 7 7 8 8 10 16 11 17 12 18 13 19 15
REMARK SMILES IDX 20 16 21 19 22 20 9 22 10 23 11 24 15 25 12 26 14 27 13 28
REMARK SMILES IDX 2 29 1 30 3 31 26 32 27 33 28 34 30 35 29 36 31 38 39 39
REMARK SMILES IDX 41 40 40 41 42 43 47 44 48 45 49 46 43 48 44 49 45 50 46 51
REMARK SMILES IDX 32 54 33 55 34 56 35 57 36 58 38 59 37 63
REMARK H PARENT 25 4 5 9 16 14 20 17 20 18 22 21 30 37 41 42 49 47 45 52 45 53
REMARK H PARENT 35 60 38 61 38 62 37 64
ROOT
ATOM      1  C   VAL A   3     -18.374 -10.551  -4.842  1.00  0.00     0.243 C 
ATOM      2  O   VAL A   3     -18.743 -11.391  -5.707  1.00  0.00    -0.273 OA
ATOM      3  N   ALA A   4     -18.821 -10.628  -3.493  1.00  0.00    -0.343 N 
ATOM      4  H   UNL     1     -18.484  -9.907  -2.814  1.00  0.00     0.164 HD
ENDROOT
BRANCH   1   5
ATOM      5  CA  VAL A   3     -17.467  -9.422  -5.204  1.00  0.00     0.174 C 
BRANCH   5   6
ATOM      6  N   VAL A   3     -16.228  -9.970  -5.726  1.00  0.00    -0.342 N 
ATOM      7  C   PHE A   2     -15.263 -10.535  -4.836  1.00  0.00     0.243 C 
ATOM      8  O   PHE A   2     -15.479 -10.579  -3.592  1.00  0.00    -0.273 OA
ATOM      9  H   UNL     1     -16.062  -9.978  -6.758  1.00  0.00     0.164 HD
BRANCH   7  10
ATOM     10  CA  PHE A   2     -13.985 -11.055  -5.395  1.00  0.00     0.175 C 
BRANCH  10  11
ATOM     11  N   PHE A   2     -12.862 -10.481  -4.670  1.00  0.00    -0.343 N 
ATOM     12  C   SER A   1     -12.601  -9.079  -4.710  1.00  0.00     0.239 C 
ATOM     13  O   SER A   1     -13.361  -8.306  -5.357  1.00  0.00    -0.273 OA
ATOM     14  H   UNL     1     -12.228 -11.100  -4.115  1.00  0.00     0.164 HD
BRANCH  12  15
ATOM     15  CA  SER A   1     -11.439  -8.538  -3.933  1.00  0.00     0.167 C 
BRANCH  15  16
ATOM     16  N   SER A   1     -10.849  -7.392  -4.628  1.00  0.00    -0.318 NA
ATOM     17  H   UNL     1     -11.531  -6.601  -4.683  1.00  0.00     0.119 HD
ATOM     18  H   UNL     1     -10.012  -7.064  -4.094  1.00  0.00     0.119 HD
ENDBRANCH  15  16
BRANCH  15  19
ATOM     19  CB  SER A   1     -11.845  -8.203  -2.481  1.00  0.00     0.184 C 
BRANCH  19  20
ATOM     20  OG  SER A   1     -12.062  -6.826  -2.310  1.00  0.00    -0.394 OA
ATOM     21  H   UNL     1     -11.201  -6.427  -2.018  1.00  0.00     0.210 HD
ENDBRANCH  19  20
ENDBRANCH  15  19
ENDBRANCH  12  15
ENDBRANCH  10  11
BRANCH  10  22
ATOM     22  CB  PHE A   2     -13.971 -12.592  -5.333  1.00  0.00     0.070 C 
BRANCH  22  23
ATOM     23  CG  PHE A   2     -12.885 -13.197  -6.186  1.00  0.00    -0.045 A 
ATOM     24  CD1 PHE A   2     -12.722 -12.806  -7.528  1.00  0.00     0.004 A 
ATOM     25  CD2 PHE A   2     -12.094 -14.241  -5.682  1.00  0.00     0.004 A 
ATOM     26  CE1 PHE A   2     -11.746 -13.399  -8.324  1.00  0.00     0.000 A 
ATOM     27  CE2 PHE A   2     -11.135 -14.852  -6.494  1.00  0.00     0.000 A 
ATOM     28  CZ  PHE A   2     -10.955 -14.424  -7.810  1.00  0.00     0.000 A 
ENDBRANCH  22  23
ENDBRANCH  10  22
ENDBRANCH   7  10
ENDBRANCH   5   6
BRANCH   5  29
ATOM     29  CB  VAL A   3     -18.163  -8.423  -6.158  1.00  0.00     0.015 C 
ATOM     30  CG1 VAL A   3     -17.335  -7.153  -6.345  1.00  0.00     0.010 C 
ATOM     31  CG2 VAL A   3     -19.488  -7.935  -5.526  1.00  0.00     0.010 C 
ENDBRANCH   5  29
ENDBRANCH   1   5
BRANCH   3  32
ATOM     32  CA  ALA A   4     -19.830 -11.566  -3.043  1.00  0.00     0.168 C 
ATOM     33  CB  ALA A   4     -19.727 -11.735  -1.529  1.00  0.00     0.041 C 
BRANCH  32  34
ATOM     34  C   ALA A   4     -21.169 -11.055  -3.466  1.00  0.00     0.242 C 
ATOM     35  N   ARG A   5     -21.504 -11.140  -4.845  1.00  0.00    -0.343 N 
ATOM     36  O   ALA A   4     -21.970 -10.538  -2.640  1.00  0.00    -0.273 OA
ATOM     37  H   UNL     1     -21.051 -11.895  -5.407  1.00  0.00     0.164 HD
BRANCH  35  38
ATOM     38  CA  ARG A   5     -22.682 -10.505  -5.396  1.00  0.00     0.171 C 
BRANCH  38  39
ATOM     39  C   ARG A   5     -23.898 -11.199  -4.886  1.00  0.00     0.243 C 
ATOM     40  N   ASN A   6     -24.981 -10.404  -4.432  1.00  0.00    -0.341 N 
ATOM     41  O   ARG A   5     -23.967 -12.459  -4.866  1.00  0.00    -0.273 OA
ATOM     42  H   UNL     1     -24.928  -9.366  -4.551  1.00  0.00     0.164 HD
BRANCH  40  43
ATOM     43  CA  ASN A   6     -26.189 -10.995  -3.883  1.00  0.00     0.201 C 
BRANCH  43  44
ATOM     44  C   ASN A   6     -27.053 -11.522  -4.997  1.00  0.00     0.326 C 
ATOM     45  O   ASN A   6     -27.151 -10.892  -6.084  1.00  0.00    -0.250 OA
BRANCH  44  46
ATOM     46  OXT ASN A   6     -27.774 -12.697  -4.811  1.00  0.00    -0.480 OA
ATOM     47  H   UNL     1     -28.371 -13.062  -5.544  1.00  0.00     0.296 HD
ENDBRANCH  44  46
ENDBRANCH  43  44
BRANCH  43  48
ATOM     48  CB  ASN A   6     -26.929  -9.934  -3.062  1.00  0.00     0.136 C 
BRANCH  48  49
ATOM     49  CG  ASN A   6     -28.019 -10.549  -2.252  1.00  0.00     0.220 C 
ATOM     50  ND2 ASN A   6     -27.701 -11.241  -1.053  1.00  0.00    -0.370 N 
ATOM     51  OD1 ASN A   6     -29.213 -10.483  -2.643  1.00  0.00    -0.275 OA
ATOM     52  H   UNL     1     -28.456 -11.688  -0.487  1.00  0.00     0.159 HD
ATOM     53  H   UNL     1     -26.713 -11.314  -0.724  1.00  0.00     0.159 HD
ENDBRANCH  48  49
ENDBRANCH  43  48
ENDBRANCH  40  43
ENDBRANCH  38  39
BRANCH  38  54
ATOM     54  CB  ARG A   5     -22.653 -10.547  -6.928  1.00  0.00     0.037 C 
BRANCH  54  55
ATOM     55  CG  ARG A   5     -21.507  -9.697  -7.473  1.00  0.00     0.024 C 
BRANCH  55  56
ATOM     56  CD  ARG A   5     -21.612  -9.488  -8.979  1.00  0.00     0.116 C 
BRANCH  56  57
ATOM     57  NE  ARG A   5     -21.197  -8.125  -9.306  1.00  0.00    -0.357 N 
ATOM     58  CZ  ARG A   5     -20.070  -7.781 -10.106  1.00  0.00     0.185 C 
ATOM     59  NH2 ARG A   5     -19.193  -8.782 -10.617  1.00  0.00    -0.370 N 
ATOM     60  H   UNL     1     -21.794  -7.345  -8.946  1.00  0.00     0.163 HD
ATOM     61  H   UNL     1     -18.485  -8.532 -11.344  1.00  0.00     0.159 HD
ATOM     62  H   UNL     1     -19.099  -9.721 -10.178  1.00  0.00     0.159 HD
BRANCH  58  63
ATOM     63  NH1 ARG A   5     -19.849  -6.534 -10.376  1.00  0.00    -0.270 NA
ATOM     64  H   UNL     1     -19.037  -6.232 -10.960  1.00  0.00     0.191 HD
ENDBRANCH  58  63
ENDBRANCH  56  57
ENDBRANCH  55  56
ENDBRANCH  54  55
ENDBRANCH  38  54
ENDBRANCH  35  38
ENDBRANCH  32  34
ENDBRANCH   3  32
TORSDOF 25
