REMARK SMILES CC(C)C[C@H](NC(=O)[C@@H]1CCCN1C(=O)[C@@H](N)CO)C(=O)N[C@@H](CCCNC(=N)N)C(=O)N[C@@H](CCCNC(=N)N)C(=O)N[C@@H](CC(N)=O)C(=O)O
REMARK SMILES IDX 20 1 21 2 22 3 5 5 6 6 7 7 8 8 9 10 13 11 12 12 10 13 11 14
REMARK SMILES IDX 14 15 15 16 16 17 17 18 18 21 19 22 4 24 2 25 1 26 3 27
REMARK SMILES IDX 23 28 31 29 33 30 32 31 34 33 42 34 44 35 43 36 45 38 50 39
REMARK SMILES IDX 51 40 52 41 46 43 47 44 48 45 49 46 35 49 36 50 37 51 38 52
REMARK SMILES IDX 39 53 41 54 40 58 24 60 25 61 26 62 27 63 28 64 30 65 29 69
REMARK H PARENT 22 4 6 9 17 19 17 20 19 23 33 32 44 37 52 42 48 47 48 48 38 55
REMARK H PARENT 41 56 41 57 40 59 27 66 30 67 30 68 29 70
ROOT
ATOM      1  C   LEU A   3     -18.371 -10.551  -4.867  1.00  0.00     0.243 C 
ATOM      2  O   LEU A   3     -18.743 -11.407  -5.714  1.00  0.00    -0.273 OA
ATOM      3  N   ARG A   4     -18.843 -10.582  -3.523  1.00  0.00    -0.343 N 
ATOM      4  H   UNL     1     -18.587  -9.794  -2.884  1.00  0.00     0.164 HD
ENDROOT
BRANCH   1   5
ATOM      5  CA  LEU A   3     -17.434  -9.459  -5.248  1.00  0.00     0.171 C 
BRANCH   5   6
ATOM      6  N   LEU A   3     -16.185 -10.017  -5.732  1.00  0.00    -0.343 N 
ATOM      7  C   PRO A   2     -15.225 -10.555  -4.825  1.00  0.00     0.243 C 
ATOM      8  O   PRO A   2     -15.454 -10.573  -3.585  1.00  0.00    -0.273 OA
ATOM      9  H   UNL     1     -15.960  -9.987  -6.753  1.00  0.00     0.164 HD
BRANCH   7  10
ATOM     10  CA  PRO A   2     -13.928 -11.085  -5.358  1.00  0.00     0.174 C 
ATOM     11  N   PRO A   2     -14.158 -11.967  -6.494  1.00  0.00    -0.329 N 
ATOM     12  CD  PRO A   2     -13.323 -11.628  -7.635  1.00  0.00     0.120 C 
ATOM     13  CB  PRO A   2     -13.024  -9.968  -5.880  1.00  0.00     0.037 C 
ATOM     14  CG  PRO A   2     -12.393 -10.521  -7.154  1.00  0.00     0.024 C 
BRANCH  11  15
ATOM     15  C   SER A   1     -14.931 -13.178  -6.387  1.00  0.00     0.242 C 
ATOM     16  O   SER A   1     -14.920 -13.817  -5.300  1.00  0.00    -0.273 OA
BRANCH  15  17
ATOM     17  CA  SER A   1     -15.815 -13.676  -7.508  1.00  0.00     0.167 C 
BRANCH  17  18
ATOM     18  N   SER A   1     -16.700 -12.604  -7.971  1.00  0.00    -0.318 NA
ATOM     19  H   UNL     1     -16.164 -11.925  -8.556  1.00  0.00     0.119 HD
ATOM     20  H   UNL     1     -17.438 -13.020  -8.584  1.00  0.00     0.119 HD
ENDBRANCH  17  18
BRANCH  17  21
ATOM     21  CB  SER A   1     -15.007 -14.295  -8.661  1.00  0.00     0.184 C 
BRANCH  21  22
ATOM     22  OG  SER A   1     -15.864 -15.012  -9.506  1.00  0.00    -0.394 OA
ATOM     23  H   UNL     1     -15.292 -15.395 -10.220  1.00  0.00     0.210 HD
ENDBRANCH  21  22
ENDBRANCH  17  21
ENDBRANCH  15  17
ENDBRANCH  11  15
ENDBRANCH   7  10
ENDBRANCH   5   6
BRANCH   5  24
ATOM     24  CB  LEU A   3     -18.086  -8.530  -6.280  1.00  0.00     0.038 C 
BRANCH  24  25
ATOM     25  CG  LEU A   3     -17.540  -7.091  -6.224  1.00  0.00    -0.015 C 
ATOM     26  CD1 LEU A   3     -18.189  -6.265  -7.337  1.00  0.00     0.007 C 
ATOM     27  CD2 LEU A   3     -17.816  -6.426  -4.860  1.00  0.00     0.007 C 
ENDBRANCH  24  25
ENDBRANCH   5  24
ENDBRANCH   1   5
BRANCH   3  28
ATOM     28  CA  ARG A   4     -19.819 -11.542  -3.050  1.00  0.00     0.171 C 
BRANCH  28  29
ATOM     29  C   ARG A   4     -21.170 -11.058  -3.465  1.00  0.00     0.243 C 
ATOM     30  N   ARG A   5     -21.504 -11.140  -4.843  1.00  0.00    -0.343 N 
ATOM     31  O   ARG A   4     -21.974 -10.547  -2.638  1.00  0.00    -0.273 OA
ATOM     32  H   UNL     1     -21.059 -11.899  -5.405  1.00  0.00     0.164 HD
BRANCH  30  33
ATOM     33  CA  ARG A   5     -22.679 -10.497  -5.388  1.00  0.00     0.171 C 
BRANCH  33  34
ATOM     34  C   ARG A   5     -23.897 -11.195  -4.886  1.00  0.00     0.243 C 
ATOM     35  N   ASN A   6     -24.982 -10.402  -4.433  1.00  0.00    -0.341 N 
ATOM     36  O   ARG A   5     -23.965 -12.455  -4.868  1.00  0.00    -0.273 OA
ATOM     37  H   UNL     1     -24.930  -9.364  -4.552  1.00  0.00     0.164 HD
BRANCH  35  38
ATOM     38  CA  ASN A   6     -26.189 -10.994  -3.883  1.00  0.00     0.201 C 
BRANCH  38  39
ATOM     39  C   ASN A   6     -27.052 -11.522  -4.997  1.00  0.00     0.326 C 
ATOM     40  O   ASN A   6     -27.151 -10.892  -6.084  1.00  0.00    -0.250 OA
BRANCH  39  41
ATOM     41  OXT ASN A   6     -27.773 -12.698  -4.811  1.00  0.00    -0.480 OA
ATOM     42  H   UNL     1     -28.370 -13.063  -5.543  1.00  0.00     0.296 HD
ENDBRANCH  39  41
ENDBRANCH  38  39
BRANCH  38  43
ATOM     43  CB  ASN A   6     -26.929  -9.934  -3.062  1.00  0.00     0.136 C 
BRANCH  43  44
ATOM     44  CG  ASN A   6     -28.019 -10.549  -2.252  1.00  0.00     0.220 C 
ATOM     45  ND2 ASN A   6     -27.701 -11.241  -1.053  1.00  0.00    -0.370 N 
ATOM     46  OD1 ASN A   6     -29.213 -10.484  -2.643  1.00  0.00    -0.275 OA
ATOM     47  H   UNL     1     -28.456 -11.688  -0.487  1.00  0.00     0.159 HD
ATOM     48  H   UNL     1     -26.713 -11.314  -0.724  1.00  0.00     0.159 HD
ENDBRANCH  43  44
ENDBRANCH  38  43
ENDBRANCH  35  38
ENDBRANCH  33  34
BRANCH  33  49
ATOM     49  CB  ARG A   5     -22.649 -10.518  -6.917  1.00  0.00     0.037 C 
BRANCH  49  50
ATOM     50  CG  ARG A   5     -21.460  -9.720  -7.459  1.00  0.00     0.024 C 
BRANCH  50  51
ATOM     51  CD  ARG A   5     -21.601  -9.480  -8.963  1.00  0.00     0.116 C 
BRANCH  51  52
ATOM     52  NE  ARG A   5     -21.189  -8.117  -9.282  1.00  0.00    -0.357 N 
ATOM     53  CZ  ARG A   5     -20.074  -7.775 -10.105  1.00  0.00     0.185 C 
ATOM     54  NH2 ARG A   5     -19.199  -8.775 -10.615  1.00  0.00    -0.370 N 
ATOM     55  H   UNL     1     -21.774  -7.342  -8.893  1.00  0.00     0.163 HD
ATOM     56  H   UNL     1     -19.094  -9.709 -10.168  1.00  0.00     0.159 HD
ATOM     57  H   UNL     1     -18.494  -8.518 -11.341  1.00  0.00     0.159 HD
BRANCH  53  58
ATOM     58  NH1 ARG A   5     -19.847  -6.533 -10.392  1.00  0.00    -0.270 NA
ATOM     59  H   UNL     1     -20.457  -5.763 -10.040  1.00  0.00     0.191 HD
ENDBRANCH  53  58
ENDBRANCH  51  52
ENDBRANCH  50  51
ENDBRANCH  49  50
ENDBRANCH  33  49
ENDBRANCH  30  33
ENDBRANCH  28  29
BRANCH  28  60
ATOM     60  CB  ARG A   4     -19.669 -11.688  -1.526  1.00  0.00     0.037 C 
BRANCH  60  61
ATOM     61  CG  ARG A   4     -20.300 -12.966  -0.963  1.00  0.00     0.024 C 
BRANCH  61  62
ATOM     62  CD  ARG A   4     -19.616 -14.253  -1.455  1.00  0.00     0.116 C 
BRANCH  62  63
ATOM     63  NE  ARG A   4     -18.160 -14.193  -1.317  1.00  0.00    -0.357 N 
ATOM     64  CZ  ARG A   4     -17.485 -14.267  -0.053  1.00  0.00     0.185 C 
ATOM     65  NH2 ARG A   4     -16.062 -14.143  -0.004  1.00  0.00    -0.370 N 
ATOM     66  H   UNL     1     -17.586 -14.126  -2.188  1.00  0.00     0.163 HD
ATOM     67  H   UNL     1     -15.549 -14.197   0.905  1.00  0.00     0.159 HD
ATOM     68  H   UNL     1     -15.515 -13.990  -0.880  1.00  0.00     0.159 HD
BRANCH  64  69
ATOM     69  NH1 ARG A   4     -18.158 -14.452   1.039  1.00  0.00    -0.270 NA
ATOM     70  H   UNL     1     -17.690 -14.511   1.971  1.00  0.00     0.191 HD
ENDBRANCH  64  69
ENDBRANCH  62  63
ENDBRANCH  61  62
ENDBRANCH  60  61
ENDBRANCH  28  60
ENDBRANCH   3  28
TORSDOF 29
