REMARK SMILES CC(C)C[C@H](NC(=O)[C@H](CCCCN)NC(=O)[C@H](Cc1ccccc1)NC(=O)[C@@H](N)CO)C(=O)N[C@@H](CCCNC(=N)N)C(=O)NCC(=O)O
REMARK SMILES IDX 7 1 8 2 6 3 9 5 15 6 16 7 17 8 18 10 26 11 27 12 28 13 29 15
REMARK SMILES IDX 30 16 31 19 32 20 19 22 20 23 21 24 25 25 22 26 24 27 23 28
REMARK SMILES IDX 10 29 11 30 12 31 13 32 14 33 5 36 33 37 35 38 34 39 36 41
REMARK SMILES IDX 44 42 46 43 45 44 47 46 48 47 49 48 50 49 37 51 38 52 39 53
REMARK SMILES IDX 40 54 41 55 43 56 42 60 4 62 2 63 1 64 3 65
REMARK H PARENT 6 4 15 9 26 14 30 17 30 18 32 21 14 34 14 35 35 40 46 45 50 50
REMARK H PARENT 40 57 43 58 43 59 42 61
ROOT
ATOM      1  C   LYS A   3     -18.386 -10.535  -4.869  1.00  0.00     0.243 C 
ATOM      2  O   LYS A   3     -18.748 -11.399  -5.714  1.00  0.00    -0.273 OA
ATOM      3  N   LEU A   4     -18.847 -10.576  -3.525  1.00  0.00    -0.343 N 
ATOM      4  H   UNL     1     -18.588  -9.791  -2.885  1.00  0.00     0.164 HD
ENDROOT
BRANCH   1   5
ATOM      5  CA  LYS A   3     -17.457  -9.437  -5.251  1.00  0.00     0.171 C 
BRANCH   5   6
ATOM      6  N   LYS A   3     -16.214 -10.007  -5.727  1.00  0.00    -0.343 N 
ATOM      7  C   PHE A   2     -15.255 -10.544  -4.824  1.00  0.00     0.243 C 
ATOM      8  O   PHE A   2     -15.478 -10.575  -3.582  1.00  0.00    -0.273 OA
ATOM      9  H   UNL     1     -16.025 -10.046  -6.755  1.00  0.00     0.164 HD
BRANCH   7  10
ATOM     10  CA  PHE A   2     -13.976 -11.061  -5.382  1.00  0.00     0.175 C 
BRANCH  10  11
ATOM     11  N   PHE A   2     -12.856 -10.483  -4.660  1.00  0.00    -0.343 N 
ATOM     12  C   SER A   1     -12.597  -9.081  -4.707  1.00  0.00     0.239 C 
ATOM     13  O   SER A   1     -13.359  -8.311  -5.356  1.00  0.00    -0.273 OA
ATOM     14  H   UNL     1     -12.221 -11.100  -4.102  1.00  0.00     0.164 HD
BRANCH  12  15
ATOM     15  CA  SER A   1     -11.437  -8.536  -3.931  1.00  0.00     0.167 C 
BRANCH  15  16
ATOM     16  N   SER A   1     -10.850  -7.390  -4.628  1.00  0.00    -0.318 NA
ATOM     17  H   UNL     1     -10.013  -7.060  -4.095  1.00  0.00     0.119 HD
ATOM     18  H   UNL     1     -11.534  -6.600  -4.684  1.00  0.00     0.119 HD
ENDBRANCH  15  16
BRANCH  15  19
ATOM     19  CB  SER A   1     -11.844  -8.201  -2.480  1.00  0.00     0.184 C 
BRANCH  19  20
ATOM     20  OG  SER A   1     -12.062  -6.825  -2.310  1.00  0.00    -0.394 OA
ATOM     21  H   UNL     1     -11.202  -6.425  -2.019  1.00  0.00     0.210 HD
ENDBRANCH  19  20
ENDBRANCH  15  19
ENDBRANCH  12  15
ENDBRANCH  10  11
BRANCH  10  22
ATOM     22  CB  PHE A   2     -13.964 -12.596  -5.325  1.00  0.00     0.070 C 
BRANCH  22  23
ATOM     23  CG  PHE A   2     -12.883 -13.199  -6.183  1.00  0.00    -0.045 A 
ATOM     24  CD1 PHE A   2     -12.723 -12.807  -7.526  1.00  0.00     0.004 A 
ATOM     25  CD2 PHE A   2     -12.091 -14.244  -5.682  1.00  0.00     0.004 A 
ATOM     26  CE1 PHE A   2     -11.747 -13.399  -8.324  1.00  0.00     0.000 A 
ATOM     27  CE2 PHE A   2     -11.133 -14.854  -6.496  1.00  0.00     0.000 A 
ATOM     28  CZ  PHE A   2     -10.955 -14.424  -7.811  1.00  0.00     0.000 A 
ENDBRANCH  22  23
ENDBRANCH  10  22
ENDBRANCH   7  10
ENDBRANCH   5   6
BRANCH   5  29
ATOM     29  CB  LYS A   3     -18.096  -8.530  -6.306  1.00  0.00     0.035 C 
BRANCH  29  30
ATOM     30  CG  LYS A   3     -17.550  -7.105  -6.214  1.00  0.00     0.004 C 
BRANCH  30  31
ATOM     31  CD  LYS A   3     -18.134  -6.208  -7.315  1.00  0.00     0.015 C 
BRANCH  31  32
ATOM     32  CE  LYS A   3     -17.247  -6.175  -8.568  1.00  0.00     0.077 C 
BRANCH  32  33
ATOM     33  NZ  LYS A   3     -15.912  -5.668  -8.258  1.00  0.00    -0.330 NA
ATOM     34  H   UNL     1     -15.994  -4.653  -8.017  1.00  0.00     0.118 HD
ATOM     35  H   UNL     1     -15.340  -5.721  -9.132  1.00  0.00     0.118 HD
ENDBRANCH  32  33
ENDBRANCH  31  32
ENDBRANCH  30  31
ENDBRANCH  29  30
ENDBRANCH   5  29
ENDBRANCH   1   5
BRANCH   3  36
ATOM     36  CA  LEU A   4     -19.819 -11.542  -3.055  1.00  0.00     0.171 C 
BRANCH  36  37
ATOM     37  C   LEU A   4     -21.173 -11.058  -3.462  1.00  0.00     0.243 C 
ATOM     38  N   ARG A   5     -21.513 -11.136  -4.840  1.00  0.00    -0.343 N 
ATOM     39  O   LEU A   4     -21.973 -10.548  -2.630  1.00  0.00    -0.273 OA
ATOM     40  H   UNL     1     -21.067 -11.891  -5.406  1.00  0.00     0.164 HD
BRANCH  38  41
ATOM     41  CA  ARG A   5     -22.691 -10.492  -5.382  1.00  0.00     0.171 C 
BRANCH  41  42
ATOM     42  C   ARG A   5     -23.911 -11.191  -4.875  1.00  0.00     0.243 C 
ATOM     43  N   GLY A   6     -24.994 -10.406  -4.388  1.00  0.00    -0.343 N 
ATOM     44  O   ARG A   5     -23.978 -12.451  -4.871  1.00  0.00    -0.273 OA
ATOM     45  H   UNL     1     -24.915  -9.364  -4.379  1.00  0.00     0.164 HD
BRANCH  43  46
ATOM     46  CA  GLY A   6     -26.218 -11.006  -3.883  1.00  0.00     0.238 C 
BRANCH  46  47
ATOM     47  C   GLY A   6     -27.046 -11.538  -5.009  1.00  0.00     0.322 C 
ATOM     48  O   GLY A   6     -27.151 -10.890  -6.085  1.00  0.00    -0.250 OA
BRANCH  47  49
ATOM     49  OXT GLY A   6     -27.733 -12.737  -4.853  1.00  0.00    -0.480 OA
ATOM     50  H   UNL     1     -28.308 -13.108  -5.600  1.00  0.00     0.296 HD
ENDBRANCH  47  49
ENDBRANCH  46  47
ENDBRANCH  43  46
ENDBRANCH  41  42
BRANCH  41  51
ATOM     51  CB  ARG A   5     -22.659 -10.514  -6.912  1.00  0.00     0.037 C 
BRANCH  51  52
ATOM     52  CG  ARG A   5     -21.466  -9.720  -7.454  1.00  0.00     0.024 C 
BRANCH  52  53
ATOM     53  CD  ARG A   5     -21.601  -9.479  -8.959  1.00  0.00     0.116 C 
BRANCH  53  54
ATOM     54  NE  ARG A   5     -21.182  -8.118  -9.275  1.00  0.00    -0.357 N 
ATOM     55  CZ  ARG A   5     -20.080  -7.780 -10.112  1.00  0.00     0.185 C 
ATOM     56  NH2 ARG A   5     -19.202  -8.782 -10.617  1.00  0.00    -0.370 N 
ATOM     57  H   UNL     1     -21.760  -7.336  -8.889  1.00  0.00     0.163 HD
ATOM     58  H   UNL     1     -19.082  -9.705 -10.147  1.00  0.00     0.159 HD
ATOM     59  H   UNL     1     -18.511  -8.543 -11.364  1.00  0.00     0.159 HD
BRANCH  55  60
ATOM     60  NH1 ARG A   5     -19.886  -6.539 -10.423  1.00  0.00    -0.270 NA
ATOM     61  H   UNL     1     -19.106  -6.246 -11.052  1.00  0.00     0.191 HD
ENDBRANCH  55  60
ENDBRANCH  53  54
ENDBRANCH  52  53
ENDBRANCH  51  52
ENDBRANCH  41  51
ENDBRANCH  38  41
ENDBRANCH  36  37
BRANCH  36  62
ATOM     62  CB  LEU A   4     -19.653 -11.692  -1.535  1.00  0.00     0.038 C 
BRANCH  62  63
ATOM     63  CG  LEU A   4     -20.296 -12.956  -0.946  1.00  0.00    -0.015 C 
ATOM     64  CD1 LEU A   4     -19.611 -14.232  -1.462  1.00  0.00     0.007 C 
ATOM     65  CD2 LEU A   4     -20.194 -12.898   0.583  1.00  0.00     0.007 C 
ENDBRANCH  62  63
ENDBRANCH  36  62
ENDBRANCH   3  36
TORSDOF 29
