REMARK SMILES CC(C)C[C@H](NC(=O)[C@H](CC(N)=O)NC(=O)[C@@H](NC(=O)[C@@H](N)CO)C(C)C)C(=O)N[C@@H](CCCNC(=N)N)C(=O)N[C@@H](CC(N)=O)C(=O)O
REMARK SMILES IDX 7 1 8 2 6 3 9 5 14 6 15 7 16 8 17 10 18 11 19 12 20 13 21 15
REMARK SMILES IDX 22 16 23 19 24 20 25 22 26 23 27 24 10 25 11 26 12 27 13 28
REMARK SMILES IDX 5 31 28 32 30 33 29 34 31 36 39 37 41 38 40 39 42 41 47 42
REMARK SMILES IDX 48 43 49 44 43 46 44 47 45 48 46 49 32 52 33 53 34 54 35 55
REMARK SMILES IDX 36 56 38 57 37 61 4 63 2 64 1 65 3 66
REMARK H PARENT 6 4 14 9 18 14 22 17 22 18 24 21 12 29 12 30 30 35 41 40 49 45
REMARK H PARENT 45 50 45 51 35 58 38 59 38 60 37 62
ROOT
ATOM      1  C   ASN A   3     -18.385 -10.525  -4.871  1.00  0.00     0.243 C 
ATOM      2  O   ASN A   3     -18.743 -11.390  -5.717  1.00  0.00    -0.273 OA
ATOM      3  N   LEU A   4     -18.843 -10.572  -3.526  1.00  0.00    -0.342 N 
ATOM      4  H   UNL     1     -18.580  -9.790  -2.883  1.00  0.00     0.164 HD
ENDROOT
BRANCH   1   5
ATOM      5  CA  ASN A   3     -17.457  -9.421  -5.252  1.00  0.00     0.180 C 
BRANCH   5   6
ATOM      6  N   ASN A   3     -16.210  -9.987  -5.732  1.00  0.00    -0.342 N 
ATOM      7  C   VAL A   2     -15.254 -10.534  -4.832  1.00  0.00     0.243 C 
ATOM      8  O   VAL A   2     -15.476 -10.566  -3.589  1.00  0.00    -0.273 OA
ATOM      9  H   UNL     1     -16.017 -10.011  -6.759  1.00  0.00     0.164 HD
BRANCH   7  10
ATOM     10  CA  VAL A   2     -13.984 -11.087  -5.393  1.00  0.00     0.173 C 
BRANCH  10  11
ATOM     11  N   VAL A   2     -12.859 -10.493  -4.681  1.00  0.00    -0.343 N 
ATOM     12  C   SER A   1     -12.607  -9.088  -4.717  1.00  0.00     0.239 C 
ATOM     13  O   SER A   1     -13.370  -8.317  -5.363  1.00  0.00    -0.273 OA
ATOM     14  H   UNL     1     -12.236 -11.098  -4.099  1.00  0.00     0.164 HD
BRANCH  12  15
ATOM     15  CA  SER A   1     -11.443  -8.542  -3.939  1.00  0.00     0.167 C 
BRANCH  15  16
ATOM     16  N   SER A   1     -10.846  -7.384  -4.609  1.00  0.00    -0.318 NA
ATOM     17  H   UNL     1     -11.573  -6.657  -4.801  1.00  0.00     0.119 HD
ATOM     18  H   UNL     1     -10.468  -7.694  -5.534  1.00  0.00     0.119 HD
ENDBRANCH  15  16
BRANCH  15  19
ATOM     19  CB  SER A   1     -11.844  -8.204  -2.490  1.00  0.00     0.184 C 
BRANCH  19  20
ATOM     20  OG  SER A   1     -12.062  -6.828  -2.324  1.00  0.00    -0.394 OA
ATOM     21  H   UNL     1     -12.974  -6.646  -2.671  1.00  0.00     0.210 HD
ENDBRANCH  19  20
ENDBRANCH  15  19
ENDBRANCH  12  15
ENDBRANCH  10  11
BRANCH  10  22
ATOM     22  CB  VAL A   2     -13.960 -12.635  -5.304  1.00  0.00     0.015 C 
ATOM     23  CG1 VAL A   2     -12.825 -13.205  -6.163  1.00  0.00     0.010 C 
ATOM     24  CG2 VAL A   2     -15.286 -13.276  -5.763  1.00  0.00     0.010 C 
ENDBRANCH  10  22
ENDBRANCH   7  10
ENDBRANCH   5   6
BRANCH   5  25
ATOM     25  CB  ASN A   3     -18.100  -8.506  -6.300  1.00  0.00     0.134 C 
BRANCH  25  26
ATOM     26  CG  ASN A   3     -17.502  -7.130  -6.262  1.00  0.00     0.220 C 
ATOM     27  ND2 ASN A   3     -17.962  -6.166  -5.314  1.00  0.00    -0.370 N 
ATOM     28  OD1 ASN A   3     -16.561  -6.836  -7.046  1.00  0.00    -0.275 OA
ATOM     29  H   UNL     1     -17.534  -5.214  -5.281  1.00  0.00     0.159 HD
ATOM     30  H   UNL     1     -18.723  -6.403  -4.640  1.00  0.00     0.159 HD
ENDBRANCH  25  26
ENDBRANCH   5  25
ENDBRANCH   1   5
BRANCH   3  31
ATOM     31  CA  LEU A   4     -19.813 -11.541  -3.056  1.00  0.00     0.171 C 
BRANCH  31  32
ATOM     32  C   LEU A   4     -21.168 -11.060  -3.464  1.00  0.00     0.243 C 
ATOM     33  N   ARG A   5     -21.504 -11.141  -4.843  1.00  0.00    -0.343 N 
ATOM     34  O   LEU A   4     -21.970 -10.550  -2.634  1.00  0.00    -0.273 OA
ATOM     35  H   UNL     1     -21.058 -11.898  -5.407  1.00  0.00     0.164 HD
BRANCH  33  36
ATOM     36  CA  ARG A   5     -22.679 -10.497  -5.387  1.00  0.00     0.171 C 
BRANCH  36  37
ATOM     37  C   ARG A   5     -23.897 -11.195  -4.885  1.00  0.00     0.243 C 
ATOM     38  N   ASN A   6     -24.982 -10.402  -4.433  1.00  0.00    -0.341 N 
ATOM     39  O   ARG A   5     -23.966 -12.455  -4.867  1.00  0.00    -0.273 OA
ATOM     40  H   UNL     1     -24.931  -9.364  -4.552  1.00  0.00     0.164 HD
BRANCH  38  41
ATOM     41  CA  ASN A   6     -26.189 -10.994  -3.883  1.00  0.00     0.201 C 
BRANCH  41  42
ATOM     42  C   ASN A   6     -27.053 -11.522  -4.997  1.00  0.00     0.326 C 
ATOM     43  O   ASN A   6     -27.151 -10.892  -6.084  1.00  0.00    -0.250 OA
BRANCH  42  44
ATOM     44  OXT ASN A   6     -27.773 -12.698  -4.811  1.00  0.00    -0.480 OA
ATOM     45  H   UNL     1     -28.370 -13.063  -5.543  1.00  0.00     0.296 HD
ENDBRANCH  42  44
ENDBRANCH  41  42
BRANCH  41  46
ATOM     46  CB  ASN A   6     -26.930  -9.934  -3.062  1.00  0.00     0.136 C 
BRANCH  46  47
ATOM     47  CG  ASN A   6     -28.019 -10.549  -2.252  1.00  0.00     0.220 C 
ATOM     48  ND2 ASN A   6     -27.701 -11.241  -1.053  1.00  0.00    -0.370 N 
ATOM     49  OD1 ASN A   6     -29.213 -10.484  -2.643  1.00  0.00    -0.275 OA
ATOM     50  H   UNL     1     -26.713 -11.314  -0.724  1.00  0.00     0.159 HD
ATOM     51  H   UNL     1     -28.456 -11.688  -0.487  1.00  0.00     0.159 HD
ENDBRANCH  46  47
ENDBRANCH  41  46
ENDBRANCH  38  41
ENDBRANCH  36  37
BRANCH  36  52
ATOM     52  CB  ARG A   5     -22.649 -10.518  -6.916  1.00  0.00     0.037 C 
BRANCH  52  53
ATOM     53  CG  ARG A   5     -21.461  -9.718  -7.459  1.00  0.00     0.024 C 
BRANCH  53  54
ATOM     54  CD  ARG A   5     -21.602  -9.480  -8.963  1.00  0.00     0.116 C 
BRANCH  54  55
ATOM     55  NE  ARG A   5     -21.190  -8.118  -9.283  1.00  0.00    -0.357 N 
ATOM     56  CZ  ARG A   5     -20.072  -7.775 -10.101  1.00  0.00     0.185 C 
ATOM     57  NH2 ARG A   5     -19.199  -8.775 -10.617  1.00  0.00    -0.370 N 
ATOM     58  H   UNL     1     -21.778  -7.343  -8.898  1.00  0.00     0.163 HD
ATOM     59  H   UNL     1     -18.493  -8.517 -11.341  1.00  0.00     0.159 HD
ATOM     60  H   UNL     1     -19.100  -9.714 -10.177  1.00  0.00     0.159 HD
BRANCH  56  61
ATOM     61  NH1 ARG A   5     -19.841  -6.533 -10.384  1.00  0.00    -0.270 NA
ATOM     62  H   UNL     1     -20.451  -5.762 -10.031  1.00  0.00     0.191 HD
ENDBRANCH  56  61
ENDBRANCH  54  55
ENDBRANCH  53  54
ENDBRANCH  52  53
ENDBRANCH  36  52
ENDBRANCH  33  36
ENDBRANCH  31  32
BRANCH  31  63
ATOM     63  CB  LEU A   4     -19.650 -11.690  -1.535  1.00  0.00     0.038 C 
BRANCH  63  64
ATOM     64  CG  LEU A   4     -20.295 -12.955  -0.947  1.00  0.00    -0.015 C 
ATOM     65  CD1 LEU A   4     -19.611 -14.232  -1.463  1.00  0.00     0.007 C 
ATOM     66  CD2 LEU A   4     -20.194 -12.897   0.582  1.00  0.00     0.007 C 
ENDBRANCH  63  64
ENDBRANCH  31  63
ENDBRANCH   3  31
TORSDOF 27
