REMARK SMILES CC(C)C[C@H](NC(=O)[C@H](CC(N)=O)NC(=O)[C@H](C)NC(=O)[C@@H](N)CO)C(=O)N[C@@H](CCCNC(=N)N)C(=O)N[C@@H](CC(N)=O)C(=O)O
REMARK SMILES IDX 7 1 8 2 6 3 9 5 14 6 15 7 16 8 17 10 18 11 19 12 20 13 21 14
REMARK SMILES IDX 22 16 23 17 24 20 25 21 10 23 11 24 12 25 13 26 5 29 26 30
REMARK SMILES IDX 28 31 27 32 29 34 37 35 39 36 38 37 40 39 45 40 46 41 47 42
REMARK SMILES IDX 41 44 42 45 43 46 44 47 30 50 31 51 32 52 33 53 34 54 36 55
REMARK SMILES IDX 35 59 4 61 2 62 1 63 3 64
REMARK H PARENT 6 4 14 9 19 15 23 18 23 19 25 22 12 27 12 28 28 33 39 38 47 43
REMARK H PARENT 43 48 43 49 33 56 36 57 36 58 35 60
ROOT
ATOM      1  C   ASN A   3     -18.384 -10.526  -4.872  1.00  0.00     0.243 C 
ATOM      2  O   ASN A   3     -18.744 -11.391  -5.717  1.00  0.00    -0.273 OA
ATOM      3  N   LEU A   4     -18.843 -10.571  -3.527  1.00  0.00    -0.342 N 
ATOM      4  H   UNL     1     -18.581  -9.788  -2.885  1.00  0.00     0.164 HD
ENDROOT
BRANCH   1   5
ATOM      5  CA  ASN A   3     -17.451  -9.427  -5.255  1.00  0.00     0.180 C 
BRANCH   5   6
ATOM      6  N   ASN A   3     -16.207  -9.999  -5.738  1.00  0.00    -0.342 N 
ATOM      7  C   ALA A   2     -15.255 -10.557  -4.839  1.00  0.00     0.242 C 
ATOM      8  O   ALA A   2     -15.477 -10.582  -3.596  1.00  0.00    -0.273 OA
ATOM      9  H   UNL     1     -16.004 -10.005  -6.764  1.00  0.00     0.164 HD
BRANCH   7  10
ATOM     10  CA  ALA A   2     -13.970 -11.085  -5.391  1.00  0.00     0.168 C 
ATOM     11  CB  ALA A   2     -13.932 -12.606  -5.285  1.00  0.00     0.041 C 
BRANCH  10  12
ATOM     12  N   ALA A   2     -12.854 -10.487  -4.674  1.00  0.00    -0.343 N 
ATOM     13  C   SER A   1     -12.604  -9.084  -4.716  1.00  0.00     0.239 C 
ATOM     14  O   SER A   1     -13.370  -8.316  -5.362  1.00  0.00    -0.273 OA
ATOM     15  H   UNL     1     -12.221 -11.094  -4.104  1.00  0.00     0.164 HD
BRANCH  13  16
ATOM     16  CA  SER A   1     -11.442  -8.537  -3.937  1.00  0.00     0.167 C 
BRANCH  16  17
ATOM     17  N   SER A   1     -10.848  -7.380  -4.610  1.00  0.00    -0.318 NA
ATOM     18  H   UNL     1     -10.479  -7.687  -5.539  1.00  0.00     0.119 HD
ATOM     19  H   UNL     1     -11.577  -6.651  -4.793  1.00  0.00     0.119 HD
ENDBRANCH  16  17
BRANCH  16  20
ATOM     20  CB  SER A   1     -11.847  -8.201  -2.488  1.00  0.00     0.184 C 
BRANCH  20  21
ATOM     21  OG  SER A   1     -12.054  -6.823  -2.318  1.00  0.00    -0.394 OA
ATOM     22  H   UNL     1     -11.171  -6.421  -2.109  1.00  0.00     0.210 HD
ENDBRANCH  20  21
ENDBRANCH  16  20
ENDBRANCH  13  16
ENDBRANCH  10  12
ENDBRANCH   7  10
ENDBRANCH   5   6
BRANCH   5  23
ATOM     23  CB  ASN A   3     -18.096  -8.509  -6.301  1.00  0.00     0.134 C 
BRANCH  23  24
ATOM     24  CG  ASN A   3     -17.501  -7.131  -6.260  1.00  0.00     0.220 C 
ATOM     25  ND2 ASN A   3     -17.960  -6.172  -5.308  1.00  0.00    -0.370 N 
ATOM     26  OD1 ASN A   3     -16.562  -6.833  -7.046  1.00  0.00    -0.275 OA
ATOM     27  H   UNL     1     -17.535  -5.219  -5.273  1.00  0.00     0.159 HD
ATOM     28  H   UNL     1     -18.719  -6.413  -4.633  1.00  0.00     0.159 HD
ENDBRANCH  23  24
ENDBRANCH   5  23
ENDBRANCH   1   5
BRANCH   3  29
ATOM     29  CA  LEU A   4     -19.813 -11.540  -3.056  1.00  0.00     0.171 C 
BRANCH  29  30
ATOM     30  C   LEU A   4     -21.168 -11.059  -3.464  1.00  0.00     0.243 C 
ATOM     31  N   ARG A   5     -21.504 -11.141  -4.842  1.00  0.00    -0.343 N 
ATOM     32  O   LEU A   4     -21.970 -10.550  -2.634  1.00  0.00    -0.273 OA
ATOM     33  H   UNL     1     -21.059 -11.899  -5.406  1.00  0.00     0.164 HD
BRANCH  31  34
ATOM     34  CA  ARG A   5     -22.679 -10.497  -5.387  1.00  0.00     0.171 C 
BRANCH  34  35
ATOM     35  C   ARG A   5     -23.897 -11.195  -4.885  1.00  0.00     0.243 C 
ATOM     36  N   ASN A   6     -24.982 -10.402  -4.433  1.00  0.00    -0.341 N 
ATOM     37  O   ARG A   5     -23.966 -12.455  -4.867  1.00  0.00    -0.273 OA
ATOM     38  H   UNL     1     -24.931  -9.364  -4.552  1.00  0.00     0.164 HD
BRANCH  36  39
ATOM     39  CA  ASN A   6     -26.189 -10.994  -3.883  1.00  0.00     0.201 C 
BRANCH  39  40
ATOM     40  C   ASN A   6     -27.053 -11.522  -4.997  1.00  0.00     0.326 C 
ATOM     41  O   ASN A   6     -27.151 -10.892  -6.084  1.00  0.00    -0.250 OA
BRANCH  40  42
ATOM     42  OXT ASN A   6     -27.773 -12.698  -4.811  1.00  0.00    -0.480 OA
ATOM     43  H   UNL     1     -28.370 -13.063  -5.543  1.00  0.00     0.296 HD
ENDBRANCH  40  42
ENDBRANCH  39  40
BRANCH  39  44
ATOM     44  CB  ASN A   6     -26.930  -9.934  -3.062  1.00  0.00     0.136 C 
BRANCH  44  45
ATOM     45  CG  ASN A   6     -28.019 -10.549  -2.252  1.00  0.00     0.220 C 
ATOM     46  ND2 ASN A   6     -27.701 -11.241  -1.053  1.00  0.00    -0.370 N 
ATOM     47  OD1 ASN A   6     -29.213 -10.484  -2.643  1.00  0.00    -0.275 OA
ATOM     48  H   UNL     1     -26.713 -11.314  -0.724  1.00  0.00     0.159 HD
ATOM     49  H   UNL     1     -28.456 -11.688  -0.487  1.00  0.00     0.159 HD
ENDBRANCH  44  45
ENDBRANCH  39  44
ENDBRANCH  36  39
ENDBRANCH  34  35
BRANCH  34  50
ATOM     50  CB  ARG A   5     -22.649 -10.518  -6.916  1.00  0.00     0.037 C 
BRANCH  50  51
ATOM     51  CG  ARG A   5     -21.461  -9.719  -7.459  1.00  0.00     0.024 C 
BRANCH  51  52
ATOM     52  CD  ARG A   5     -21.602  -9.480  -8.963  1.00  0.00     0.116 C 
BRANCH  52  53
ATOM     53  NE  ARG A   5     -21.190  -8.118  -9.283  1.00  0.00    -0.357 N 
ATOM     54  CZ  ARG A   5     -20.072  -7.775 -10.101  1.00  0.00     0.185 C 
ATOM     55  NH2 ARG A   5     -19.200  -8.775 -10.617  1.00  0.00    -0.370 N 
ATOM     56  H   UNL     1     -21.778  -7.343  -8.898  1.00  0.00     0.163 HD
ATOM     57  H   UNL     1     -19.100  -9.714 -10.177  1.00  0.00     0.159 HD
ATOM     58  H   UNL     1     -18.493  -8.517 -11.341  1.00  0.00     0.159 HD
BRANCH  54  59
ATOM     59  NH1 ARG A   5     -19.841  -6.533 -10.384  1.00  0.00    -0.270 NA
ATOM     60  H   UNL     1     -20.451  -5.762 -10.031  1.00  0.00     0.191 HD
ENDBRANCH  54  59
ENDBRANCH  52  53
ENDBRANCH  51  52
ENDBRANCH  50  51
ENDBRANCH  34  50
ENDBRANCH  31  34
ENDBRANCH  29  30
BRANCH  29  61
ATOM     61  CB  LEU A   4     -19.650 -11.690  -1.536  1.00  0.00     0.038 C 
BRANCH  61  62
ATOM     62  CG  LEU A   4     -20.295 -12.955  -0.947  1.00  0.00    -0.015 C 
ATOM     63  CD1 LEU A   4     -19.611 -14.231  -1.463  1.00  0.00     0.007 C 
ATOM     64  CD2 LEU A   4     -20.194 -12.897   0.582  1.00  0.00     0.007 C 
ENDBRANCH  61  62
ENDBRANCH  29  61
ENDBRANCH   3  29
TORSDOF 26
