REMARK SMILES CC(C)C[C@H](NC(=O)[C@H](Cc1ccccc1)NC(=O)[C@H](C)N)C(=O)N[C@@H](CO)C(=O)N[C@@H](CCCNC(=N)N)C(=O)N[C@@H](CC(N)=O)C(=O)O
REMARK SMILES IDX 26 1 25 2 23 3 24 4 5 6 6 7 7 8 8 9 9 11 17 12 18 13 19 14
REMARK SMILES IDX 20 16 21 17 22 18 10 21 11 22 12 23 16 24 13 25 15 26 14 27
REMARK SMILES IDX 4 28 2 29 1 30 3 31 29 32 31 33 30 34 32 36 40 37 42 38
REMARK SMILES IDX 41 39 43 41 48 42 49 43 50 44 44 46 45 47 46 48 47 49 33 52
REMARK SMILES IDX 34 53 35 54 36 55 37 56 39 57 38 61 27 63 28 64
REMARK H PARENT 25 5 6 10 17 15 22 19 22 20 31 35 42 40 50 45 46 50 46 51
REMARK H PARENT 36 58 39 59 39 60 38 62 28 65
ROOT
ATOM      1  CA  SER A   4     -19.829 -11.564  -3.045  1.00  0.00     0.197 C 
ENDROOT
BRANCH   1   2
ATOM      2  N   SER A   4     -18.827 -10.621  -3.506  1.00  0.00    -0.340 N 
ATOM      3  C   LEU A   3     -18.387 -10.555  -4.859  1.00  0.00     0.243 C 
ATOM      4  O   LEU A   3     -18.758 -11.405  -5.713  1.00  0.00    -0.273 OA
ATOM      5  H   UNL     1     -18.491  -9.895  -2.832  1.00  0.00     0.164 HD
BRANCH   3   6
ATOM      6  CA  LEU A   3     -17.457  -9.457  -5.237  1.00  0.00     0.171 C 
BRANCH   6   7
ATOM      7  N   LEU A   3     -16.216 -10.019  -5.727  1.00  0.00    -0.343 N 
ATOM      8  C   PHE A   2     -15.251 -10.547  -4.825  1.00  0.00     0.243 C 
ATOM      9  O   PHE A   2     -15.471 -10.577  -3.582  1.00  0.00    -0.273 OA
ATOM     10  H   UNL     1     -16.041 -10.068  -6.756  1.00  0.00     0.164 HD
BRANCH   8  11
ATOM     11  CA  PHE A   2     -13.974 -11.063  -5.384  1.00  0.00     0.175 C 
BRANCH  11  12
ATOM     12  N   PHE A   2     -12.852 -10.488  -4.661  1.00  0.00    -0.343 N 
ATOM     13  C   ALA A   1     -12.592  -9.087  -4.705  1.00  0.00     0.237 C 
ATOM     14  O   ALA A   1     -13.352  -8.313  -5.353  1.00  0.00    -0.273 OA
ATOM     15  H   UNL     1     -12.216 -11.107  -4.108  1.00  0.00     0.164 HD
BRANCH  13  16
ATOM     16  CA  ALA A   1     -11.435  -8.545  -3.923  1.00  0.00     0.138 C 
ATOM     17  CB  ALA A   1     -11.886  -8.213  -2.501  1.00  0.00     0.035 C 
BRANCH  16  18
ATOM     18  N   ALA A   1     -10.893  -7.358  -4.578  1.00  0.00    -0.320 NA
ATOM     19  H   UNL     1     -10.539  -7.636  -5.522  1.00  0.00     0.119 HD
ATOM     20  H   UNL     1     -10.054  -7.039  -4.040  1.00  0.00     0.119 HD
ENDBRANCH  16  18
ENDBRANCH  13  16
ENDBRANCH  11  12
BRANCH  11  21
ATOM     21  CB  PHE A   2     -13.964 -12.598  -5.328  1.00  0.00     0.070 C 
BRANCH  21  22
ATOM     22  CG  PHE A   2     -12.882 -13.200  -6.184  1.00  0.00    -0.045 A 
ATOM     23  CD1 PHE A   2     -12.722 -12.808  -7.527  1.00  0.00     0.004 A 
ATOM     24  CD2 PHE A   2     -12.091 -14.244  -5.683  1.00  0.00     0.004 A 
ATOM     25  CE1 PHE A   2     -11.746 -13.400  -8.325  1.00  0.00     0.000 A 
ATOM     26  CE2 PHE A   2     -11.132 -14.854  -6.496  1.00  0.00     0.000 A 
ATOM     27  CZ  PHE A   2     -10.954 -14.424  -7.812  1.00  0.00     0.000 A 
ENDBRANCH  21  22
ENDBRANCH  11  21
ENDBRANCH   8  11
ENDBRANCH   6   7
BRANCH   6  28
ATOM     28  CB  LEU A   3     -18.103  -8.527  -6.272  1.00  0.00     0.038 C 
BRANCH  28  29
ATOM     29  CG  LEU A   3     -17.544  -7.093  -6.221  1.00  0.00    -0.015 C 
ATOM     30  CD1 LEU A   3     -18.188  -6.265  -7.337  1.00  0.00     0.007 C 
ATOM     31  CD2 LEU A   3     -17.812  -6.422  -4.860  1.00  0.00     0.007 C 
ENDBRANCH  28  29
ENDBRANCH   6  28
ENDBRANCH   3   6
ENDBRANCH   1   2
BRANCH   1  32
ATOM     32  C   SER A   4     -21.169 -11.054  -3.465  1.00  0.00     0.245 C 
ATOM     33  N   ARG A   5     -21.503 -11.137  -4.844  1.00  0.00    -0.342 N 
ATOM     34  O   SER A   4     -21.970 -10.538  -2.638  1.00  0.00    -0.273 OA
ATOM     35  H   UNL     1     -21.067 -11.905  -5.402  1.00  0.00     0.164 HD
BRANCH  33  36
ATOM     36  CA  ARG A   5     -22.679 -10.496  -5.389  1.00  0.00     0.171 C 
BRANCH  36  37
ATOM     37  C   ARG A   5     -23.897 -11.194  -4.886  1.00  0.00     0.243 C 
ATOM     38  N   ASN A   6     -24.982 -10.402  -4.433  1.00  0.00    -0.341 N 
ATOM     39  O   ARG A   5     -23.965 -12.454  -4.868  1.00  0.00    -0.273 OA
ATOM     40  H   UNL     1     -24.931  -9.364  -4.552  1.00  0.00     0.164 HD
BRANCH  38  41
ATOM     41  CA  ASN A   6     -26.189 -10.994  -3.883  1.00  0.00     0.201 C 
BRANCH  41  42
ATOM     42  C   ASN A   6     -27.053 -11.522  -4.997  1.00  0.00     0.326 C 
ATOM     43  O   ASN A   6     -27.151 -10.892  -6.084  1.00  0.00    -0.250 OA
BRANCH  42  44
ATOM     44  OXT ASN A   6     -27.773 -12.698  -4.811  1.00  0.00    -0.480 OA
ATOM     45  H   UNL     1     -28.370 -13.063  -5.543  1.00  0.00     0.296 HD
ENDBRANCH  42  44
ENDBRANCH  41  42
BRANCH  41  46
ATOM     46  CB  ASN A   6     -26.930  -9.934  -3.062  1.00  0.00     0.136 C 
BRANCH  46  47
ATOM     47  CG  ASN A   6     -28.019 -10.549  -2.252  1.00  0.00     0.220 C 
ATOM     48  ND2 ASN A   6     -27.701 -11.241  -1.053  1.00  0.00    -0.370 N 
ATOM     49  OD1 ASN A   6     -29.213 -10.484  -2.643  1.00  0.00    -0.275 OA
ATOM     50  H   UNL     1     -28.456 -11.688  -0.487  1.00  0.00     0.159 HD
ATOM     51  H   UNL     1     -26.713 -11.314  -0.724  1.00  0.00     0.159 HD
ENDBRANCH  46  47
ENDBRANCH  41  46
ENDBRANCH  38  41
ENDBRANCH  36  37
BRANCH  36  52
ATOM     52  CB  ARG A   5     -22.649 -10.517  -6.917  1.00  0.00     0.037 C 
BRANCH  52  53
ATOM     53  CG  ARG A   5     -21.462  -9.717  -7.460  1.00  0.00     0.024 C 
BRANCH  53  54
ATOM     54  CD  ARG A   5     -21.602  -9.477  -8.964  1.00  0.00     0.116 C 
BRANCH  54  55
ATOM     55  NE  ARG A   5     -21.186  -8.116  -9.284  1.00  0.00    -0.357 N 
ATOM     56  CZ  ARG A   5     -20.072  -7.777 -10.106  1.00  0.00     0.185 C 
ATOM     57  NH2 ARG A   5     -19.198  -8.780 -10.616  1.00  0.00    -0.370 N 
ATOM     58  H   UNL     1     -21.765  -7.334  -8.899  1.00  0.00     0.163 HD
ATOM     59  H   UNL     1     -18.499  -8.537 -11.353  1.00  0.00     0.159 HD
ATOM     60  H   UNL     1     -19.093  -9.712 -10.162  1.00  0.00     0.159 HD
BRANCH  56  61
ATOM     61  NH1 ARG A   5     -19.855  -6.531 -10.387  1.00  0.00    -0.270 NA
ATOM     62  H   UNL     1     -19.050  -6.233 -10.981  1.00  0.00     0.191 HD
ENDBRANCH  56  61
ENDBRANCH  54  55
ENDBRANCH  53  54
ENDBRANCH  52  53
ENDBRANCH  36  52
ENDBRANCH  33  36
ENDBRANCH   1  32
BRANCH   1  63
ATOM     63  CB  SER A   4     -19.714 -11.731  -1.528  1.00  0.00     0.191 C 
BRANCH  63  64
ATOM     64  OG  SER A   4     -20.619 -12.704  -1.084  1.00  0.00    -0.394 OA
ATOM     65  H   UNL     1     -20.500 -12.762  -0.100  1.00  0.00     0.210 HD
ENDBRANCH  63  64
ENDBRANCH   1  63
TORSDOF 26
