REMARK SMILES CC(C)C[C@H](NC(=O)[C@H](C)NC(=O)[C@H](Cc1ccccc1)NC(=O)[C@@H](N)CO)C(=O)N[C@@H](CCCNC(=N)N)C(=O)N[C@@H](CO)C(=O)O
REMARK SMILES IDX 7 1 8 2 6 3 9 5 10 6 11 7 12 8 13 9 14 11 22 12 23 13 24 14
REMARK SMILES IDX 25 16 26 17 27 20 28 21 15 23 16 24 17 25 21 26 18 27 20 28
REMARK SMILES IDX 19 29 5 30 29 31 31 32 30 33 32 35 40 36 42 37 41 38 43 40
REMARK SMILES IDX 46 41 47 42 48 43 44 45 45 46 33 48 34 49 35 50 36 51 37 52
REMARK SMILES IDX 39 53 38 57 4 59 2 60 1 61 3 62
REMARK H PARENT 6 4 11 10 22 15 26 18 26 19 28 22 31 34 42 39 48 44 45 47
REMARK H PARENT 36 54 39 55 39 56 38 58
ROOT
ATOM      1  C   ALA A   3     -18.395 -10.517  -4.875  1.00  0.00     0.242 C 
ATOM      2  O   ALA A   3     -18.751 -11.389  -5.714  1.00  0.00    -0.273 OA
ATOM      3  N   LEU A   4     -18.843 -10.566  -3.527  1.00  0.00    -0.343 N 
ATOM      4  H   UNL     1     -18.567  -9.789  -2.883  1.00  0.00     0.164 HD
ENDROOT
BRANCH   1   5
ATOM      5  CA  ALA A   3     -17.457  -9.426  -5.264  1.00  0.00     0.168 C 
ATOM      6  CB  ALA A   3     -18.069  -8.535  -6.335  1.00  0.00     0.041 C 
BRANCH   5   7
ATOM      7  N   ALA A   3     -16.216 -10.010  -5.731  1.00  0.00    -0.343 N 
ATOM      8  C   PHE A   2     -15.258 -10.543  -4.825  1.00  0.00     0.243 C 
ATOM      9  O   PHE A   2     -15.482 -10.571  -3.583  1.00  0.00    -0.273 OA
ATOM     10  H   UNL     1     -16.034 -10.063  -6.760  1.00  0.00     0.164 HD
BRANCH   8  11
ATOM     11  CA  PHE A   2     -13.978 -11.060  -5.381  1.00  0.00     0.175 C 
BRANCH  11  12
ATOM     12  N   PHE A   2     -12.857 -10.483  -4.658  1.00  0.00    -0.343 N 
ATOM     13  C   SER A   1     -12.598  -9.080  -4.705  1.00  0.00     0.239 C 
ATOM     14  O   SER A   1     -13.359  -8.310  -5.355  1.00  0.00    -0.273 OA
ATOM     15  H   UNL     1     -12.224 -11.100  -4.100  1.00  0.00     0.164 HD
BRANCH  13  16
ATOM     16  CA  SER A   1     -11.436  -8.537  -3.932  1.00  0.00     0.167 C 
BRANCH  16  17
ATOM     17  N   SER A   1     -10.847  -7.390  -4.625  1.00  0.00    -0.318 NA
ATOM     18  H   UNL     1     -11.538  -6.608  -4.704  1.00  0.00     0.119 HD
ATOM     19  H   UNL     1     -10.030  -7.043  -4.072  1.00  0.00     0.119 HD
ENDBRANCH  16  17
BRANCH  16  20
ATOM     20  CB  SER A   1     -11.839  -8.201  -2.481  1.00  0.00     0.184 C 
BRANCH  20  21
ATOM     21  OG  SER A   1     -12.068  -6.828  -2.314  1.00  0.00    -0.394 OA
ATOM     22  H   UNL     1     -12.986  -6.655  -2.649  1.00  0.00     0.210 HD
ENDBRANCH  20  21
ENDBRANCH  16  20
ENDBRANCH  13  16
ENDBRANCH  11  12
BRANCH  11  23
ATOM     23  CB  PHE A   2     -13.965 -12.596  -5.325  1.00  0.00     0.070 C 
BRANCH  23  24
ATOM     24  CG  PHE A   2     -12.883 -13.199  -6.183  1.00  0.00    -0.045 A 
ATOM     25  CD1 PHE A   2     -12.723 -12.807  -7.526  1.00  0.00     0.004 A 
ATOM     26  CD2 PHE A   2     -12.091 -14.244  -5.682  1.00  0.00     0.004 A 
ATOM     27  CE1 PHE A   2     -11.747 -13.399  -8.324  1.00  0.00     0.000 A 
ATOM     28  CE2 PHE A   2     -11.133 -14.853  -6.495  1.00  0.00     0.000 A 
ATOM     29  CZ  PHE A   2     -10.955 -14.424  -7.811  1.00  0.00     0.000 A 
ENDBRANCH  23  24
ENDBRANCH  11  23
ENDBRANCH   8  11
ENDBRANCH   5   7
ENDBRANCH   1   5
BRANCH   3  30
ATOM     30  CA  LEU A   4     -19.813 -11.536  -3.055  1.00  0.00     0.171 C 
BRANCH  30  31
ATOM     31  C   LEU A   4     -21.169 -11.058  -3.463  1.00  0.00     0.243 C 
ATOM     32  N   ARG A   5     -21.507 -11.140  -4.841  1.00  0.00    -0.343 N 
ATOM     33  O   LEU A   4     -21.971 -10.549  -2.633  1.00  0.00    -0.273 OA
ATOM     34  H   UNL     1     -21.065 -11.901  -5.404  1.00  0.00     0.164 HD
BRANCH  32  35
ATOM     35  CA  ARG A   5     -22.682 -10.495  -5.384  1.00  0.00     0.171 C 
BRANCH  35  36
ATOM     36  C   ARG A   5     -23.901 -11.193  -4.882  1.00  0.00     0.243 C 
ATOM     37  N   SER A   6     -24.985 -10.404  -4.417  1.00  0.00    -0.339 N 
ATOM     38  O   ARG A   5     -23.969 -12.454  -4.869  1.00  0.00    -0.273 OA
ATOM     39  H   UNL     1     -24.929  -9.364  -4.512  1.00  0.00     0.164 HD
BRANCH  37  40
ATOM     40  CA  SER A   6     -26.195 -11.003  -3.874  1.00  0.00     0.218 C 
BRANCH  40  41
ATOM     41  C   SER A   6     -27.062 -11.517  -4.990  1.00  0.00     0.328 C 
ATOM     42  O   SER A   6     -27.145 -10.889  -6.080  1.00  0.00    -0.250 OA
BRANCH  41  43
ATOM     43  OXT SER A   6     -27.810 -12.674  -4.801  1.00  0.00    -0.480 OA
ATOM     44  H   UNL     1     -28.411 -13.030  -5.535  1.00  0.00     0.296 HD
ENDBRANCH  41  43
ENDBRANCH  40  41
BRANCH  40  45
ATOM     45  CB  SER A   6     -26.951  -9.969  -3.034  1.00  0.00     0.193 C 
BRANCH  45  46
ATOM     46  OG  SER A   6     -26.150  -9.506  -1.980  1.00  0.00    -0.394 OA
ATOM     47  H   UNL     1     -26.127 -10.230  -1.301  1.00  0.00     0.210 HD
ENDBRANCH  45  46
ENDBRANCH  40  45
ENDBRANCH  37  40
ENDBRANCH  35  36
BRANCH  35  48
ATOM     48  CB  ARG A   5     -22.652 -10.513  -6.913  1.00  0.00     0.037 C 
BRANCH  48  49
ATOM     49  CG  ARG A   5     -21.457  -9.724  -7.457  1.00  0.00     0.024 C 
BRANCH  49  50
ATOM     50  CD  ARG A   5     -21.601  -9.481  -8.961  1.00  0.00     0.116 C 
BRANCH  50  51
ATOM     51  NE  ARG A   5     -21.189  -8.118  -9.280  1.00  0.00    -0.357 N 
ATOM     52  CZ  ARG A   5     -20.073  -7.775 -10.101  1.00  0.00     0.185 C 
ATOM     53  NH2 ARG A   5     -19.201  -8.775 -10.617  1.00  0.00    -0.370 N 
ATOM     54  H   UNL     1     -21.774  -7.343  -8.891  1.00  0.00     0.163 HD
ATOM     55  H   UNL     1     -18.495  -8.517 -11.343  1.00  0.00     0.159 HD
ATOM     56  H   UNL     1     -19.101  -9.714 -10.177  1.00  0.00     0.159 HD
BRANCH  52  57
ATOM     57  NH1 ARG A   5     -19.843  -6.533 -10.385  1.00  0.00    -0.270 NA
ATOM     58  H   UNL     1     -20.452  -5.762 -10.031  1.00  0.00     0.191 HD
ENDBRANCH  52  57
ENDBRANCH  50  51
ENDBRANCH  49  50
ENDBRANCH  48  49
ENDBRANCH  35  48
ENDBRANCH  32  35
ENDBRANCH  30  31
BRANCH  30  59
ATOM     59  CB  LEU A   4     -19.649 -11.688  -1.535  1.00  0.00     0.038 C 
BRANCH  59  60
ATOM     60  CG  LEU A   4     -20.294 -12.953  -0.948  1.00  0.00    -0.015 C 
ATOM     61  CD1 LEU A   4     -19.611 -14.230  -1.463  1.00  0.00     0.007 C 
ATOM     62  CD2 LEU A   4     -20.194 -12.897   0.581  1.00  0.00     0.007 C 
ENDBRANCH  59  60
ENDBRANCH  30  59
ENDBRANCH   3  30
TORSDOF 26
