REMARK SMILES CC(C)C[C@H](NC(=O)[C@H](CCC(=O)O)NC(=O)[C@@H](N)CO)C(=O)NCC(=O)N[C@@H](CCCNC(=N)N)C(=O)N[C@@H](CC(N)=O)C(=O)O
REMARK SMILES IDX 22 1 23 2 24 3 5 5 6 6 7 7 8 8 9 10 15 11 16 12 17 13 18 15
REMARK SMILES IDX 19 16 20 19 21 20 10 22 11 23 12 24 13 25 14 26 4 28 2 29
REMARK SMILES IDX 1 30 3 31 25 32 26 33 28 34 27 35 29 37 37 38 39 39 38 40
REMARK SMILES IDX 40 42 45 43 46 44 47 45 41 47 42 48 43 49 44 50 30 53 31 54
REMARK SMILES IDX 32 55 33 56 34 57 36 58 35 62
REMARK H PARENT 24 4 6 9 15 14 19 17 19 18 21 21 14 27 28 36 39 41 47 46 43 51
REMARK H PARENT 43 52 33 59 36 60 36 61 35 63
ROOT
ATOM      1  C   LEU A   3     -18.387 -10.561  -4.853  1.00  0.00     0.243 C 
ATOM      2  O   LEU A   3     -18.764 -11.404  -5.712  1.00  0.00    -0.273 OA
ATOM      3  N   GLY A   4     -18.818 -10.645  -3.494  1.00  0.00    -0.345 N 
ATOM      4  H   UNL     1     -18.407 -10.000  -2.782  1.00  0.00     0.164 HD
ENDROOT
BRANCH   1   5
ATOM      5  CA  LEU A   3     -17.456  -9.461  -5.233  1.00  0.00     0.171 C 
BRANCH   5   6
ATOM      6  N   LEU A   3     -16.214 -10.020  -5.729  1.00  0.00    -0.343 N 
ATOM      7  C   GLU A   2     -15.249 -10.557  -4.834  1.00  0.00     0.243 C 
ATOM      8  O   GLU A   2     -15.465 -10.582  -3.590  1.00  0.00    -0.273 OA
ATOM      9  H   UNL     1     -16.030 -10.048  -6.758  1.00  0.00     0.164 HD
BRANCH   7  10
ATOM     10  CA  GLU A   2     -13.970 -11.082  -5.395  1.00  0.00     0.172 C 
BRANCH  10  11
ATOM     11  N   GLU A   2     -12.852 -10.488  -4.677  1.00  0.00    -0.343 N 
ATOM     12  C   SER A   1     -12.603  -9.084  -4.717  1.00  0.00     0.239 C 
ATOM     13  O   SER A   1     -13.369  -8.316  -5.362  1.00  0.00    -0.273 OA
ATOM     14  H   UNL     1     -12.224 -11.093  -4.099  1.00  0.00     0.164 HD
BRANCH  12  15
ATOM     15  CA  SER A   1     -11.442  -8.537  -3.937  1.00  0.00     0.167 C 
BRANCH  15  16
ATOM     16  N   SER A   1     -10.848  -7.380  -4.609  1.00  0.00    -0.318 NA
ATOM     17  H   UNL     1     -11.576  -6.651  -4.793  1.00  0.00     0.119 HD
ATOM     18  H   UNL     1     -10.478  -7.687  -5.539  1.00  0.00     0.119 HD
ENDBRANCH  15  16
BRANCH  15  19
ATOM     19  CB  SER A   1     -11.848  -8.202  -2.488  1.00  0.00     0.184 C 
BRANCH  19  20
ATOM     20  OG  SER A   1     -12.054  -6.823  -2.318  1.00  0.00    -0.394 OA
ATOM     21  H   UNL     1     -11.171  -6.421  -2.108  1.00  0.00     0.210 HD
ENDBRANCH  19  20
ENDBRANCH  15  19
ENDBRANCH  12  15
ENDBRANCH  10  11
BRANCH  10  22
ATOM     22  CB  GLU A   2     -13.950 -12.613  -5.295  1.00  0.00     0.047 C 
BRANCH  22  23
ATOM     23  CG  GLU A   2     -12.855 -13.221  -6.174  1.00  0.00     0.125 C 
BRANCH  23  24
ATOM     24  CD  GLU A   2     -12.845 -14.711  -6.041  1.00  0.00     0.303 C 
ATOM     25  OE1 GLU A   2     -13.544 -15.419  -6.814  1.00  0.00    -0.252 OA
BRANCH  24  26
ATOM     26  OE2 GLU A   2     -12.097 -15.312  -5.034  1.00  0.00    -0.481 OA
ATOM     27  H   UNL     1     -12.092 -16.318  -4.920  1.00  0.00     0.296 HD
ENDBRANCH  24  26
ENDBRANCH  23  24
ENDBRANCH  22  23
ENDBRANCH  10  22
ENDBRANCH   7  10
ENDBRANCH   5   6
BRANCH   5  28
ATOM     28  CB  LEU A   3     -18.105  -8.530  -6.266  1.00  0.00     0.038 C 
BRANCH  28  29
ATOM     29  CG  LEU A   3     -17.544  -7.095  -6.219  1.00  0.00    -0.015 C 
ATOM     30  CD1 LEU A   3     -18.189  -6.268  -7.335  1.00  0.00     0.007 C 
ATOM     31  CD2 LEU A   3     -17.811  -6.423  -4.859  1.00  0.00     0.007 C 
ENDBRANCH  28  29
ENDBRANCH   5  28
ENDBRANCH   1   5
BRANCH   3  32
ATOM     32  CA  GLY A   4     -19.840 -11.569  -3.040  1.00  0.00     0.216 C 
BRANCH  32  33
ATOM     33  C   GLY A   4     -21.164 -11.056  -3.467  1.00  0.00     0.240 C 
ATOM     34  N   ARG A   5     -21.502 -11.138  -4.845  1.00  0.00    -0.343 N 
ATOM     35  O   GLY A   4     -21.960 -10.547  -2.632  1.00  0.00    -0.273 OA
ATOM     36  H   UNL     1     -21.070 -11.908  -5.402  1.00  0.00     0.164 HD
BRANCH  34  37
ATOM     37  CA  ARG A   5     -22.679 -10.496  -5.388  1.00  0.00     0.171 C 
BRANCH  37  38
ATOM     38  C   ARG A   5     -23.896 -11.194  -4.885  1.00  0.00     0.243 C 
ATOM     39  N   ASN A   6     -24.982 -10.402  -4.433  1.00  0.00    -0.341 N 
ATOM     40  O   ARG A   5     -23.965 -12.454  -4.868  1.00  0.00    -0.273 OA
ATOM     41  H   UNL     1     -24.931  -9.364  -4.553  1.00  0.00     0.164 HD
BRANCH  39  42
ATOM     42  CA  ASN A   6     -26.189 -10.994  -3.883  1.00  0.00     0.201 C 
BRANCH  42  43
ATOM     43  C   ASN A   6     -27.052 -11.522  -4.997  1.00  0.00     0.326 C 
ATOM     44  O   ASN A   6     -27.151 -10.892  -6.084  1.00  0.00    -0.250 OA
BRANCH  43  45
ATOM     45  OXT ASN A   6     -27.773 -12.698  -4.811  1.00  0.00    -0.480 OA
ATOM     46  H   UNL     1     -28.370 -13.063  -5.543  1.00  0.00     0.296 HD
ENDBRANCH  43  45
ENDBRANCH  42  43
BRANCH  42  47
ATOM     47  CB  ASN A   6     -26.930  -9.934  -3.062  1.00  0.00     0.136 C 
BRANCH  47  48
ATOM     48  CG  ASN A   6     -28.019 -10.549  -2.252  1.00  0.00     0.220 C 
ATOM     49  ND2 ASN A   6     -27.701 -11.241  -1.053  1.00  0.00    -0.370 N 
ATOM     50  OD1 ASN A   6     -29.213 -10.484  -2.643  1.00  0.00    -0.275 OA
ATOM     51  H   UNL     1     -26.713 -11.314  -0.724  1.00  0.00     0.159 HD
ATOM     52  H   UNL     1     -28.456 -11.688  -0.487  1.00  0.00     0.159 HD
ENDBRANCH  47  48
ENDBRANCH  42  47
ENDBRANCH  39  42
ENDBRANCH  37  38
BRANCH  37  53
ATOM     53  CB  ARG A   5     -22.650 -10.517  -6.916  1.00  0.00     0.037 C 
BRANCH  53  54
ATOM     54  CG  ARG A   5     -21.461  -9.718  -7.459  1.00  0.00     0.024 C 
BRANCH  54  55
ATOM     55  CD  ARG A   5     -21.602  -9.480  -8.964  1.00  0.00     0.116 C 
BRANCH  55  56
ATOM     56  NE  ARG A   5     -21.190  -8.117  -9.282  1.00  0.00    -0.357 N 
ATOM     57  CZ  ARG A   5     -20.075  -7.775 -10.105  1.00  0.00     0.185 C 
ATOM     58  NH2 ARG A   5     -19.200  -8.774 -10.616  1.00  0.00    -0.370 N 
ATOM     59  H   UNL     1     -21.775  -7.342  -8.894  1.00  0.00     0.163 HD
ATOM     60  H   UNL     1     -18.493  -8.517 -11.341  1.00  0.00     0.159 HD
ATOM     61  H   UNL     1     -19.097  -9.710 -10.171  1.00  0.00     0.159 HD
BRANCH  57  62
ATOM     62  NH1 ARG A   5     -19.847  -6.533 -10.392  1.00  0.00    -0.270 NA
ATOM     63  H   UNL     1     -20.457  -5.762 -10.039  1.00  0.00     0.191 HD
ENDBRANCH  57  62
ENDBRANCH  55  56
ENDBRANCH  54  55
ENDBRANCH  53  54
ENDBRANCH  37  53
ENDBRANCH  34  37
ENDBRANCH  32  33
ENDBRANCH   3  32
TORSDOF 28
