REMARK SMILES CC(C)C[C@H](NC(=O)[C@H](Cc1ccccc1)NC(=O)[C@@H](N)CO)C(=O)N[C@@H](C)C(=O)N[C@@H](CCCNC(=N)N)C(=O)N[C@@H](C)C(=O)O
REMARK SMILES IDX 24 1 25 2 26 3 5 5 6 6 7 7 8 8 9 10 17 11 18 12 19 13 20 15
REMARK SMILES IDX 21 16 22 19 23 20 10 22 11 23 12 24 16 25 13 26 15 27 14 28
REMARK SMILES IDX 4 29 2 30 1 31 3 32 27 33 28 34 29 35 31 36 30 37 32 39
REMARK SMILES IDX 40 40 42 41 41 42 43 44 44 45 45 46 46 47 47 48 33 50 34 51
REMARK SMILES IDX 35 52 36 53 37 54 39 55 38 59
REMARK H PARENT 26 4 6 9 17 14 21 17 21 18 23 21 31 38 42 43 47 49 36 56 39 57
REMARK H PARENT 39 58 38 60
ROOT
ATOM      1  C   LEU A   3     -18.387 -10.555  -4.860  1.00  0.00     0.243 C 
ATOM      2  O   LEU A   3     -18.759 -11.405  -5.713  1.00  0.00    -0.273 OA
ATOM      3  N   ALA A   4     -18.825 -10.623  -3.506  1.00  0.00    -0.343 N 
ATOM      4  H   UNL     1     -18.481  -9.901  -2.830  1.00  0.00     0.164 HD
ENDROOT
BRANCH   1   5
ATOM      5  CA  LEU A   3     -17.457  -9.457  -5.238  1.00  0.00     0.171 C 
BRANCH   5   6
ATOM      6  N   LEU A   3     -16.217 -10.019  -5.727  1.00  0.00    -0.343 N 
ATOM      7  C   PHE A   2     -15.252 -10.547  -4.825  1.00  0.00     0.243 C 
ATOM      8  O   PHE A   2     -15.472 -10.577  -3.583  1.00  0.00    -0.273 OA
ATOM      9  H   UNL     1     -16.041 -10.068  -6.757  1.00  0.00     0.164 HD
BRANCH   7  10
ATOM     10  CA  PHE A   2     -13.974 -11.061  -5.384  1.00  0.00     0.175 C 
BRANCH  10  11
ATOM     11  N   PHE A   2     -12.855 -10.483  -4.661  1.00  0.00    -0.343 N 
ATOM     12  C   SER A   1     -12.598  -9.080  -4.706  1.00  0.00     0.239 C 
ATOM     13  O   SER A   1     -13.360  -8.310  -5.355  1.00  0.00    -0.273 OA
ATOM     14  H   UNL     1     -12.220 -11.100  -4.104  1.00  0.00     0.164 HD
BRANCH  12  15
ATOM     15  CA  SER A   1     -11.436  -8.537  -3.932  1.00  0.00     0.167 C 
BRANCH  15  16
ATOM     16  N   SER A   1     -10.847  -7.390  -4.625  1.00  0.00    -0.318 NA
ATOM     17  H   UNL     1     -11.539  -6.608  -4.704  1.00  0.00     0.119 HD
ATOM     18  H   UNL     1     -10.030  -7.042  -4.072  1.00  0.00     0.119 HD
ENDBRANCH  15  16
BRANCH  15  19
ATOM     19  CB  SER A   1     -11.839  -8.201  -2.481  1.00  0.00     0.184 C 
BRANCH  19  20
ATOM     20  OG  SER A   1     -12.068  -6.828  -2.314  1.00  0.00    -0.394 OA
ATOM     21  H   UNL     1     -12.987  -6.654  -2.650  1.00  0.00     0.210 HD
ENDBRANCH  19  20
ENDBRANCH  15  19
ENDBRANCH  12  15
ENDBRANCH  10  11
BRANCH  10  22
ATOM     22  CB  PHE A   2     -13.963 -12.596  -5.326  1.00  0.00     0.070 C 
BRANCH  22  23
ATOM     23  CG  PHE A   2     -12.882 -13.200  -6.184  1.00  0.00    -0.045 A 
ATOM     24  CD1 PHE A   2     -12.722 -12.808  -7.527  1.00  0.00     0.004 A 
ATOM     25  CD2 PHE A   2     -12.090 -14.244  -5.683  1.00  0.00     0.004 A 
ATOM     26  CE1 PHE A   2     -11.747 -13.399  -8.324  1.00  0.00     0.000 A 
ATOM     27  CE2 PHE A   2     -11.133 -14.854  -6.496  1.00  0.00     0.000 A 
ATOM     28  CZ  PHE A   2     -10.954 -14.424  -7.812  1.00  0.00     0.000 A 
ENDBRANCH  22  23
ENDBRANCH  10  22
ENDBRANCH   7  10
ENDBRANCH   5   6
BRANCH   5  29
ATOM     29  CB  LEU A   3     -18.103  -8.527  -6.272  1.00  0.00     0.038 C 
BRANCH  29  30
ATOM     30  CG  LEU A   3     -17.544  -7.093  -6.222  1.00  0.00    -0.015 C 
ATOM     31  CD1 LEU A   3     -18.188  -6.265  -7.337  1.00  0.00     0.007 C 
ATOM     32  CD2 LEU A   3     -17.812  -6.422  -4.860  1.00  0.00     0.007 C 
ENDBRANCH  29  30
ENDBRANCH   5  29
ENDBRANCH   1   5
BRANCH   3  33
ATOM     33  CA  ALA A   4     -19.830 -11.563  -3.046  1.00  0.00     0.168 C 
ATOM     34  CB  ALA A   4     -19.720 -11.728  -1.531  1.00  0.00     0.041 C 
BRANCH  33  35
ATOM     35  C   ALA A   4     -21.170 -11.054  -3.464  1.00  0.00     0.242 C 
ATOM     36  N   ARG A   5     -21.506 -11.136  -4.843  1.00  0.00    -0.343 N 
ATOM     37  O   ALA A   4     -21.970 -10.540  -2.636  1.00  0.00    -0.273 OA
ATOM     38  H   UNL     1     -21.069 -11.902  -5.402  1.00  0.00     0.164 HD
BRANCH  36  39
ATOM     39  CA  ARG A   5     -22.683 -10.494  -5.386  1.00  0.00     0.171 C 
BRANCH  39  40
ATOM     40  C   ARG A   5     -23.901 -11.193  -4.882  1.00  0.00     0.243 C 
ATOM     41  N   ALA A   6     -24.984 -10.404  -4.413  1.00  0.00    -0.341 N 
ATOM     42  O   ARG A   5     -23.969 -12.453  -4.870  1.00  0.00    -0.273 OA
ATOM     43  H   UNL     1     -24.922  -9.363  -4.494  1.00  0.00     0.164 HD
BRANCH  41  44
ATOM     44  CA  ALA A   6     -26.196 -11.003  -3.874  1.00  0.00     0.189 C 
ATOM     45  CB  ALA A   6     -26.948  -9.970  -3.039  1.00  0.00     0.043 C 
BRANCH  44  46
ATOM     46  C   ALA A   6     -27.061 -11.517  -4.990  1.00  0.00     0.325 C 
ATOM     47  O   ALA A   6     -27.145 -10.889  -6.080  1.00  0.00    -0.250 OA
BRANCH  46  48
ATOM     48  OXT ALA A   6     -27.807 -12.676  -4.802  1.00  0.00    -0.480 OA
ATOM     49  H   UNL     1     -28.408 -13.033  -5.536  1.00  0.00     0.296 HD
ENDBRANCH  46  48
ENDBRANCH  44  46
ENDBRANCH  41  44
ENDBRANCH  39  40
BRANCH  39  50
ATOM     50  CB  ARG A   5     -22.652 -10.516  -6.915  1.00  0.00     0.037 C 
BRANCH  50  51
ATOM     51  CG  ARG A   5     -21.463  -9.717  -7.459  1.00  0.00     0.024 C 
BRANCH  51  52
ATOM     52  CD  ARG A   5     -21.603  -9.477  -8.963  1.00  0.00     0.116 C 
BRANCH  52  53
ATOM     53  NE  ARG A   5     -21.186  -8.116  -9.283  1.00  0.00    -0.357 N 
ATOM     54  CZ  ARG A   5     -20.073  -7.777 -10.106  1.00  0.00     0.185 C 
ATOM     55  NH2 ARG A   5     -19.198  -8.780 -10.616  1.00  0.00    -0.370 N 
ATOM     56  H   UNL     1     -21.765  -7.335  -8.899  1.00  0.00     0.163 HD
ATOM     57  H   UNL     1     -19.093  -9.712 -10.162  1.00  0.00     0.159 HD
ATOM     58  H   UNL     1     -18.499  -8.537 -11.353  1.00  0.00     0.159 HD
BRANCH  54  59
ATOM     59  NH1 ARG A   5     -19.856  -6.532 -10.386  1.00  0.00    -0.270 NA
ATOM     60  H   UNL     1     -19.051  -6.233 -10.981  1.00  0.00     0.191 HD
ENDBRANCH  54  59
ENDBRANCH  52  53
ENDBRANCH  51  52
ENDBRANCH  50  51
ENDBRANCH  39  50
ENDBRANCH  36  39
ENDBRANCH  33  35
ENDBRANCH   3  33
TORSDOF 24
