REMARK SMILES CC(C)C[C@H](NC(=O)[C@H](CC(N)=O)NC(=O)[C@H](Cc1ccccc1)NC(=O)[C@@H](N)CO)C(=O)N[C@@H](CCCNC(=N)N)C(=O)N[C@@H](CCC(N)=O)C(=O)O
REMARK SMILES IDX 7 1 8 2 6 3 9 5 14 6 15 7 16 8 17 10 25 11 26 12 27 13 28 15
REMARK SMILES IDX 29 16 30 19 31 20 18 22 19 23 20 24 24 25 21 26 23 27 22 28
REMARK SMILES IDX 10 29 11 30 12 31 13 32 5 35 32 36 34 37 33 38 35 40 43 41
REMARK SMILES IDX 45 42 44 43 46 45 52 46 53 47 54 48 47 50 48 51 49 52 50 53
REMARK SMILES IDX 51 54 36 57 37 58 38 59 39 60 40 61 42 62 41 66 4 68 2 69
REMARK SMILES IDX 1 70 3 71
REMARK H PARENT 6 4 14 9 25 14 29 17 29 18 31 21 12 33 12 34 34 39 45 44 54 49
REMARK H PARENT 50 55 50 56 39 63 42 64 42 65 41 67
ROOT
ATOM      1  C   ASN A   3     -18.389 -10.524  -4.871  1.00  0.00     0.243 C 
ATOM      2  O   ASN A   3     -18.746 -11.390  -5.716  1.00  0.00    -0.273 OA
ATOM      3  N   LEU A   4     -18.845 -10.572  -3.525  1.00  0.00    -0.342 N 
ATOM      4  H   UNL     1     -18.580  -9.791  -2.881  1.00  0.00     0.164 HD
ENDROOT
BRANCH   1   5
ATOM      5  CA  ASN A   3     -17.458  -9.424  -5.251  1.00  0.00     0.180 C 
BRANCH   5   6
ATOM      6  N   ASN A   3     -16.216  -9.998  -5.728  1.00  0.00    -0.342 N 
ATOM      7  C   PHE A   2     -15.258 -10.541  -4.826  1.00  0.00     0.243 C 
ATOM      8  O   PHE A   2     -15.481 -10.573  -3.584  1.00  0.00    -0.273 OA
ATOM      9  H   UNL     1     -16.037 -10.051  -6.757  1.00  0.00     0.164 HD
BRANCH   7  10
ATOM     10  CA  PHE A   2     -13.979 -11.059  -5.384  1.00  0.00     0.175 C 
BRANCH  10  11
ATOM     11  N   PHE A   2     -12.858 -10.482  -4.660  1.00  0.00    -0.343 N 
ATOM     12  C   SER A   1     -12.599  -9.080  -4.706  1.00  0.00     0.239 C 
ATOM     13  O   SER A   1     -13.360  -8.309  -5.356  1.00  0.00    -0.273 OA
ATOM     14  H   UNL     1     -12.224 -11.100  -4.104  1.00  0.00     0.164 HD
BRANCH  12  15
ATOM     15  CA  SER A   1     -11.437  -8.537  -3.932  1.00  0.00     0.167 C 
BRANCH  15  16
ATOM     16  N   SER A   1     -10.847  -7.390  -4.626  1.00  0.00    -0.318 NA
ATOM     17  H   UNL     1     -10.030  -7.043  -4.072  1.00  0.00     0.119 HD
ATOM     18  H   UNL     1     -11.538  -6.608  -4.704  1.00  0.00     0.119 HD
ENDBRANCH  15  16
BRANCH  15  19
ATOM     19  CB  SER A   1     -11.839  -8.201  -2.481  1.00  0.00     0.184 C 
BRANCH  19  20
ATOM     20  OG  SER A   1     -12.068  -6.828  -2.314  1.00  0.00    -0.394 OA
ATOM     21  H   UNL     1     -12.986  -6.654  -2.650  1.00  0.00     0.210 HD
ENDBRANCH  19  20
ENDBRANCH  15  19
ENDBRANCH  12  15
ENDBRANCH  10  11
BRANCH  10  22
ATOM     22  CB  PHE A   2     -13.966 -12.595  -5.326  1.00  0.00     0.070 C 
BRANCH  22  23
ATOM     23  CG  PHE A   2     -12.883 -13.198  -6.183  1.00  0.00    -0.045 A 
ATOM     24  CD1 PHE A   2     -12.723 -12.806  -7.526  1.00  0.00     0.004 A 
ATOM     25  CD2 PHE A   2     -12.092 -14.243  -5.682  1.00  0.00     0.004 A 
ATOM     26  CE1 PHE A   2     -11.747 -13.399  -8.324  1.00  0.00     0.000 A 
ATOM     27  CE2 PHE A   2     -11.134 -14.853  -6.495  1.00  0.00     0.000 A 
ATOM     28  CZ  PHE A   2     -10.955 -14.424  -7.811  1.00  0.00     0.000 A 
ENDBRANCH  22  23
ENDBRANCH  10  22
ENDBRANCH   7  10
ENDBRANCH   5   6
BRANCH   5  29
ATOM     29  CB  ASN A   3     -18.098  -8.507  -6.300  1.00  0.00     0.134 C 
BRANCH  29  30
ATOM     30  CG  ASN A   3     -17.500  -7.130  -6.259  1.00  0.00     0.220 C 
ATOM     31  ND2 ASN A   3     -16.313  -6.838  -6.995  1.00  0.00    -0.370 N 
ATOM     32  OD1 ASN A   3     -18.024  -6.238  -5.540  1.00  0.00    -0.275 OA
ATOM     33  H   UNL     1     -15.885  -5.887  -6.950  1.00  0.00     0.159 HD
ATOM     34  H   UNL     1     -15.857  -7.571  -7.583  1.00  0.00     0.159 HD
ENDBRANCH  29  30
ENDBRANCH   5  29
ENDBRANCH   1   5
BRANCH   3  35
ATOM     35  CA  LEU A   4     -19.815 -11.541  -3.055  1.00  0.00     0.171 C 
BRANCH  35  36
ATOM     36  C   LEU A   4     -21.169 -11.059  -3.463  1.00  0.00     0.243 C 
ATOM     37  N   ARG A   5     -21.505 -11.139  -4.842  1.00  0.00    -0.343 N 
ATOM     38  O   LEU A   4     -21.971 -10.550  -2.634  1.00  0.00    -0.273 OA
ATOM     39  H   UNL     1     -21.060 -11.897  -5.406  1.00  0.00     0.164 HD
BRANCH  37  40
ATOM     40  CA  ARG A   5     -22.680 -10.496  -5.387  1.00  0.00     0.171 C 
BRANCH  40  41
ATOM     41  C   ARG A   5     -23.898 -11.195  -4.885  1.00  0.00     0.243 C 
ATOM     42  N   GLN A   6     -24.983 -10.406  -4.426  1.00  0.00    -0.341 N 
ATOM     43  O   ARG A   5     -23.964 -12.455  -4.870  1.00  0.00    -0.273 OA
ATOM     44  H   UNL     1     -24.935  -9.367  -4.538  1.00  0.00     0.164 HD
BRANCH  42  45
ATOM     45  CA  GLN A   6     -26.188 -11.008  -3.881  1.00  0.00     0.192 C 
BRANCH  45  46
ATOM     46  C   GLN A   6     -27.047 -11.528  -5.002  1.00  0.00     0.326 C 
ATOM     47  O   GLN A   6     -27.154 -10.883  -6.080  1.00  0.00    -0.250 OA
BRANCH  46  48
ATOM     48  OXT GLN A   6     -27.741 -12.723  -4.841  1.00  0.00    -0.480 OA
ATOM     49  H   UNL     1     -28.329 -13.086  -5.581  1.00  0.00     0.296 HD
ENDBRANCH  46  48
ENDBRANCH  45  46
BRANCH  45  50
ATOM     50  CB  GLN A   6     -26.930  -9.961  -3.037  1.00  0.00     0.047 C 
BRANCH  50  51
ATOM     51  CG  GLN A   6     -28.071 -10.562  -2.212  1.00  0.00     0.102 C 
BRANCH  51  52
ATOM     52  CD  GLN A   6     -27.564 -11.445  -1.108  1.00  0.00     0.217 C 
ATOM     53  NE2 GLN A   6     -27.626 -12.866  -1.228  1.00  0.00    -0.370 N 
ATOM     54  OE1 GLN A   6     -27.059 -10.927  -0.076  1.00  0.00    -0.275 OA
ATOM     55  H   UNL     1     -28.032 -13.315  -2.078  1.00  0.00     0.159 HD
ATOM     56  H   UNL     1     -27.260 -13.475  -0.462  1.00  0.00     0.159 HD
ENDBRANCH  51  52
ENDBRANCH  50  51
ENDBRANCH  45  50
ENDBRANCH  42  45
ENDBRANCH  40  41
BRANCH  40  57
ATOM     57  CB  ARG A   5     -22.650 -10.517  -6.915  1.00  0.00     0.037 C 
BRANCH  57  58
ATOM     58  CG  ARG A   5     -21.462  -9.718  -7.458  1.00  0.00     0.024 C 
BRANCH  58  59
ATOM     59  CD  ARG A   5     -21.602  -9.481  -8.963  1.00  0.00     0.116 C 
BRANCH  59  60
ATOM     60  NE  ARG A   5     -21.190  -8.118  -9.283  1.00  0.00    -0.357 N 
ATOM     61  CZ  ARG A   5     -20.072  -7.775 -10.101  1.00  0.00     0.185 C 
ATOM     62  NH2 ARG A   5     -19.199  -8.775 -10.616  1.00  0.00    -0.370 N 
ATOM     63  H   UNL     1     -21.778  -7.343  -8.898  1.00  0.00     0.163 HD
ATOM     64  H   UNL     1     -19.100  -9.714 -10.177  1.00  0.00     0.159 HD
ATOM     65  H   UNL     1     -18.492  -8.517 -11.340  1.00  0.00     0.159 HD
BRANCH  61  66
ATOM     66  NH1 ARG A   5     -19.841  -6.533 -10.384  1.00  0.00    -0.270 NA
ATOM     67  H   UNL     1     -20.451  -5.762 -10.031  1.00  0.00     0.191 HD
ENDBRANCH  61  66
ENDBRANCH  59  60
ENDBRANCH  58  59
ENDBRANCH  57  58
ENDBRANCH  40  57
ENDBRANCH  37  40
ENDBRANCH  35  36
BRANCH  35  68
ATOM     68  CB  LEU A   4     -19.651 -11.691  -1.535  1.00  0.00     0.038 C 
BRANCH  68  69
ATOM     69  CG  LEU A   4     -20.295 -12.955  -0.947  1.00  0.00    -0.015 C 
ATOM     70  CD1 LEU A   4     -19.611 -14.232  -1.462  1.00  0.00     0.007 C 
ATOM     71  CD2 LEU A   4     -20.194 -12.898   0.582  1.00  0.00     0.007 C 
ENDBRANCH  68  69
ENDBRANCH  35  68
ENDBRANCH   3  35
TORSDOF 29
