REMARK SMILES CC(C)C[C@H](NC(=O)[C@H](Cc1ccccc1)NC(=O)[C@H](Cc1c[nH]cn1)NC(=O)[C@@H](N)CO)C(=O)N[C@@H](CCCNC(=N)N)C(=O)N[C@@H](CC(N)=O)C(=O)O
REMARK SMILES IDX 7 1 8 2 6 3 9 5 17 6 18 7 19 8 20 10 27 11 28 12 29 13 30 15
REMARK SMILES IDX 31 16 32 19 33 20 21 22 22 23 26 24 23 25 25 26 24 27 10 29
REMARK SMILES IDX 11 30 12 31 16 32 13 33 15 34 14 35 5 36 34 37 36 38 35 39
REMARK SMILES IDX 37 41 45 42 47 43 46 44 48 46 53 47 54 48 55 49 49 51 50 52
REMARK SMILES IDX 51 53 52 54 38 57 39 58 40 59 41 60 42 61 44 62 43 66 4 68
REMARK SMILES IDX 2 69 1 70 3 71
REMARK H PARENT 6 4 17 9 27 14 31 17 31 18 33 21 24 28 36 40 47 45 55 50 51 55
REMARK H PARENT 51 56 41 63 44 64 44 65 43 67
ROOT
ATOM      1  C   PHE A   3     -18.385 -10.527  -4.871  1.00  0.00     0.243 C 
ATOM      2  O   PHE A   3     -18.745 -11.392  -5.716  1.00  0.00    -0.273 OA
ATOM      3  N   LEU A   4     -18.844 -10.572  -3.526  1.00  0.00    -0.343 N 
ATOM      4  H   UNL     1     -18.582  -9.788  -2.884  1.00  0.00     0.164 HD
ENDROOT
BRANCH   1   5
ATOM      5  CA  PHE A   3     -17.453  -9.428  -5.254  1.00  0.00     0.175 C 
BRANCH   5   6
ATOM      6  N   PHE A   3     -16.210 -10.002  -5.737  1.00  0.00    -0.342 N 
ATOM      7  C   HIS A   2     -15.253 -10.553  -4.838  1.00  0.00     0.243 C 
ATOM      8  O   HIS A   2     -15.474 -10.579  -3.595  1.00  0.00    -0.273 OA
ATOM      9  H   UNL     1     -16.022 -10.033  -6.765  1.00  0.00     0.164 HD
BRANCH   7  10
ATOM     10  CA  HIS A   2     -13.972 -11.082  -5.396  1.00  0.00     0.177 C 
BRANCH  10  11
ATOM     11  N   HIS A   2     -12.853 -10.488  -4.679  1.00  0.00    -0.342 N 
ATOM     12  C   SER A   1     -12.605  -9.084  -4.716  1.00  0.00     0.239 C 
ATOM     13  O   SER A   1     -13.370  -8.315  -5.361  1.00  0.00    -0.273 OA
ATOM     14  H   UNL     1     -12.219 -11.096  -4.111  1.00  0.00     0.164 HD
BRANCH  12  15
ATOM     15  CA  SER A   1     -11.443  -8.537  -3.936  1.00  0.00     0.167 C 
BRANCH  15  16
ATOM     16  N   SER A   1     -10.848  -7.379  -4.606  1.00  0.00    -0.318 NA
ATOM     17  H   UNL     1     -11.577  -6.651  -4.791  1.00  0.00     0.119 HD
ATOM     18  H   UNL     1     -10.477  -7.685  -5.535  1.00  0.00     0.119 HD
ENDBRANCH  15  16
BRANCH  15  19
ATOM     19  CB  SER A   1     -11.844  -8.204  -2.487  1.00  0.00     0.184 C 
BRANCH  19  20
ATOM     20  OG  SER A   1     -12.057  -6.827  -2.328  1.00  0.00    -0.394 OA
ATOM     21  H   UNL     1     -12.318  -6.695  -1.380  1.00  0.00     0.210 HD
ENDBRANCH  19  20
ENDBRANCH  15  19
ENDBRANCH  12  15
ENDBRANCH  10  11
BRANCH  10  22
ATOM     22  CB  HIS A   2     -13.951 -12.614  -5.300  1.00  0.00     0.093 C 
BRANCH  22  23
ATOM     23  CG  HIS A   2     -12.870 -13.199  -6.157  1.00  0.00     0.061 A 
ATOM     24  ND1 HIS A   2     -11.630 -13.488  -5.714  1.00  0.00    -0.242 NA
ATOM     25  CD2 HIS A   2     -12.953 -13.443  -7.510  1.00  0.00     0.107 A 
ATOM     26  CE1 HIS A   2     -10.986 -13.923  -6.817  1.00  0.00     0.196 A 
ATOM     27  NE2 HIS A   2     -11.762 -13.906  -7.917  1.00  0.00    -0.351 N 
ATOM     28  H   UNL     1     -11.491 -14.184  -8.886  1.00  0.00     0.167 HD
ENDBRANCH  22  23
ENDBRANCH  10  22
ENDBRANCH   7  10
ENDBRANCH   5   6
BRANCH   5  29
ATOM     29  CB  PHE A   3     -18.097  -8.510  -6.301  1.00  0.00     0.070 C 
BRANCH  29  30
ATOM     30  CG  PHE A   3     -17.496  -7.128  -6.260  1.00  0.00    -0.045 A 
ATOM     31  CD1 PHE A   3     -18.010  -6.153  -5.389  1.00  0.00     0.004 A 
ATOM     32  CD2 PHE A   3     -16.372  -6.826  -7.047  1.00  0.00     0.004 A 
ATOM     33  CE1 PHE A   3     -17.419  -4.887  -5.323  1.00  0.00     0.000 A 
ATOM     34  CE2 PHE A   3     -15.784  -5.560  -6.977  1.00  0.00     0.000 A 
ATOM     35  CZ  PHE A   3     -16.308  -4.590  -6.117  1.00  0.00     0.000 A 
ENDBRANCH  29  30
ENDBRANCH   5  29
ENDBRANCH   1   5
BRANCH   3  36
ATOM     36  CA  LEU A   4     -19.814 -11.540  -3.056  1.00  0.00     0.171 C 
BRANCH  36  37
ATOM     37  C   LEU A   4     -21.168 -11.060  -3.464  1.00  0.00     0.243 C 
ATOM     38  N   ARG A   5     -21.505 -11.141  -4.842  1.00  0.00    -0.343 N 
ATOM     39  O   LEU A   4     -21.971 -10.550  -2.634  1.00  0.00    -0.273 OA
ATOM     40  H   UNL     1     -21.059 -11.899  -5.406  1.00  0.00     0.164 HD
BRANCH  38  41
ATOM     41  CA  ARG A   5     -22.679 -10.497  -5.387  1.00  0.00     0.171 C 
BRANCH  41  42
ATOM     42  C   ARG A   5     -23.897 -11.195  -4.885  1.00  0.00     0.243 C 
ATOM     43  N   ASN A   6     -24.982 -10.402  -4.433  1.00  0.00    -0.341 N 
ATOM     44  O   ARG A   5     -23.966 -12.455  -4.867  1.00  0.00    -0.273 OA
ATOM     45  H   UNL     1     -24.931  -9.364  -4.552  1.00  0.00     0.164 HD
BRANCH  43  46
ATOM     46  CA  ASN A   6     -26.189 -10.994  -3.883  1.00  0.00     0.201 C 
BRANCH  46  47
ATOM     47  C   ASN A   6     -27.053 -11.522  -4.997  1.00  0.00     0.326 C 
ATOM     48  O   ASN A   6     -27.151 -10.892  -6.084  1.00  0.00    -0.250 OA
BRANCH  47  49
ATOM     49  OXT ASN A   6     -27.773 -12.698  -4.811  1.00  0.00    -0.480 OA
ATOM     50  H   UNL     1     -28.370 -13.063  -5.543  1.00  0.00     0.296 HD
ENDBRANCH  47  49
ENDBRANCH  46  47
BRANCH  46  51
ATOM     51  CB  ASN A   6     -26.930  -9.934  -3.062  1.00  0.00     0.136 C 
BRANCH  51  52
ATOM     52  CG  ASN A   6     -28.019 -10.549  -2.252  1.00  0.00     0.220 C 
ATOM     53  ND2 ASN A   6     -27.701 -11.241  -1.053  1.00  0.00    -0.370 N 
ATOM     54  OD1 ASN A   6     -29.213 -10.484  -2.643  1.00  0.00    -0.275 OA
ATOM     55  H   UNL     1     -28.456 -11.688  -0.487  1.00  0.00     0.159 HD
ATOM     56  H   UNL     1     -26.713 -11.314  -0.724  1.00  0.00     0.159 HD
ENDBRANCH  51  52
ENDBRANCH  46  51
ENDBRANCH  43  46
ENDBRANCH  41  42
BRANCH  41  57
ATOM     57  CB  ARG A   5     -22.649 -10.518  -6.916  1.00  0.00     0.037 C 
BRANCH  57  58
ATOM     58  CG  ARG A   5     -21.461  -9.718  -7.459  1.00  0.00     0.024 C 
BRANCH  58  59
ATOM     59  CD  ARG A   5     -21.602  -9.480  -8.963  1.00  0.00     0.116 C 
BRANCH  59  60
ATOM     60  NE  ARG A   5     -21.190  -8.118  -9.283  1.00  0.00    -0.357 N 
ATOM     61  CZ  ARG A   5     -20.071  -7.775 -10.101  1.00  0.00     0.185 C 
ATOM     62  NH2 ARG A   5     -19.199  -8.775 -10.616  1.00  0.00    -0.370 N 
ATOM     63  H   UNL     1     -21.777  -7.343  -8.897  1.00  0.00     0.163 HD
ATOM     64  H   UNL     1     -18.491  -8.516 -11.340  1.00  0.00     0.159 HD
ATOM     65  H   UNL     1     -19.099  -9.713 -10.176  1.00  0.00     0.159 HD
BRANCH  61  66
ATOM     66  NH1 ARG A   5     -19.841  -6.532 -10.384  1.00  0.00    -0.270 NA
ATOM     67  H   UNL     1     -20.451  -5.762 -10.030  1.00  0.00     0.191 HD
ENDBRANCH  61  66
ENDBRANCH  59  60
ENDBRANCH  58  59
ENDBRANCH  57  58
ENDBRANCH  41  57
ENDBRANCH  38  41
ENDBRANCH  36  37
BRANCH  36  68
ATOM     68  CB  LEU A   4     -19.651 -11.690  -1.535  1.00  0.00     0.038 C 
BRANCH  68  69
ATOM     69  CG  LEU A   4     -20.295 -12.955  -0.947  1.00  0.00    -0.015 C 
ATOM     70  CD1 LEU A   4     -19.611 -14.231  -1.462  1.00  0.00     0.007 C 
ATOM     71  CD2 LEU A   4     -20.194 -12.897   0.582  1.00  0.00     0.007 C 
ENDBRANCH  68  69
ENDBRANCH  36  68
ENDBRANCH   3  36
TORSDOF 28
