REMARK SMILES CC(C)C[C@H](NC(=O)[C@H](Cc1ccccc1)NC(=O)[C@@H](N)CO)C(=O)N[C@@H](C)C(=O)N[C@@H](CCCNC(=N)N)C(=O)NCC(=O)O
REMARK SMILES IDX 24 1 25 2 26 3 5 5 6 6 7 7 8 8 9 10 17 11 18 12 19 13 20 15
REMARK SMILES IDX 21 16 22 19 23 20 10 22 11 23 12 24 16 25 13 26 15 27 14 28
REMARK SMILES IDX 4 29 2 30 1 31 3 32 27 33 28 34 29 35 31 36 30 37 32 39
REMARK SMILES IDX 40 40 42 41 41 42 43 44 44 45 45 46 46 47 33 49 34 50 35 51
REMARK SMILES IDX 36 52 37 53 39 54 38 58
REMARK H PARENT 26 4 6 9 17 14 21 17 21 18 23 21 31 38 42 43 46 48 36 55 39 56
REMARK H PARENT 39 57 38 59
ROOT
ATOM      1  C   LEU A   3     -18.388 -10.555  -4.860  1.00  0.00     0.243 C 
ATOM      2  O   LEU A   3     -18.760 -11.405  -5.714  1.00  0.00    -0.273 OA
ATOM      3  N   ALA A   4     -18.826 -10.622  -3.506  1.00  0.00    -0.343 N 
ATOM      4  H   UNL     1     -18.484  -9.900  -2.831  1.00  0.00     0.164 HD
ENDROOT
BRANCH   1   5
ATOM      5  CA  LEU A   3     -17.457  -9.457  -5.238  1.00  0.00     0.171 C 
BRANCH   5   6
ATOM      6  N   LEU A   3     -16.217 -10.020  -5.727  1.00  0.00    -0.343 N 
ATOM      7  C   PHE A   2     -15.253 -10.548  -4.825  1.00  0.00     0.243 C 
ATOM      8  O   PHE A   2     -15.472 -10.578  -3.583  1.00  0.00    -0.273 OA
ATOM      9  H   UNL     1     -16.042 -10.068  -6.757  1.00  0.00     0.164 HD
BRANCH   7  10
ATOM     10  CA  PHE A   2     -13.975 -11.063  -5.385  1.00  0.00     0.175 C 
BRANCH  10  11
ATOM     11  N   PHE A   2     -12.855 -10.485  -4.663  1.00  0.00    -0.343 N 
ATOM     12  C   SER A   1     -12.601  -9.083  -4.709  1.00  0.00     0.239 C 
ATOM     13  O   SER A   1     -13.365  -8.314  -5.357  1.00  0.00    -0.273 OA
ATOM     14  H   UNL     1     -12.219 -11.102  -4.107  1.00  0.00     0.164 HD
BRANCH  12  15
ATOM     15  CA  SER A   1     -11.438  -8.537  -3.934  1.00  0.00     0.167 C 
BRANCH  15  16
ATOM     16  N   SER A   1     -10.845  -7.380  -4.608  1.00  0.00    -0.318 NA
ATOM     17  H   UNL     1     -11.573  -6.651  -4.790  1.00  0.00     0.119 HD
ATOM     18  H   UNL     1     -10.477  -7.688  -5.538  1.00  0.00     0.119 HD
ENDBRANCH  15  16
BRANCH  15  19
ATOM     19  CB  SER A   1     -11.843  -8.200  -2.485  1.00  0.00     0.184 C 
BRANCH  19  20
ATOM     20  OG  SER A   1     -12.055  -6.823  -2.318  1.00  0.00    -0.394 OA
ATOM     21  H   UNL     1     -11.173  -6.417  -2.109  1.00  0.00     0.210 HD
ENDBRANCH  19  20
ENDBRANCH  15  19
ENDBRANCH  12  15
ENDBRANCH  10  11
BRANCH  10  22
ATOM     22  CB  PHE A   2     -13.964 -12.598  -5.326  1.00  0.00     0.070 C 
BRANCH  22  23
ATOM     23  CG  PHE A   2     -12.882 -13.200  -6.184  1.00  0.00    -0.045 A 
ATOM     24  CD1 PHE A   2     -12.722 -12.808  -7.527  1.00  0.00     0.004 A 
ATOM     25  CD2 PHE A   2     -12.090 -14.245  -5.683  1.00  0.00     0.004 A 
ATOM     26  CE1 PHE A   2     -11.747 -13.400  -8.324  1.00  0.00     0.000 A 
ATOM     27  CE2 PHE A   2     -11.132 -14.854  -6.496  1.00  0.00     0.000 A 
ATOM     28  CZ  PHE A   2     -10.954 -14.424  -7.812  1.00  0.00     0.000 A 
ENDBRANCH  22  23
ENDBRANCH  10  22
ENDBRANCH   7  10
ENDBRANCH   5   6
BRANCH   5  29
ATOM     29  CB  LEU A   3     -18.103  -8.527  -6.272  1.00  0.00     0.038 C 
BRANCH  29  30
ATOM     30  CG  LEU A   3     -17.544  -7.093  -6.222  1.00  0.00    -0.015 C 
ATOM     31  CD1 LEU A   3     -18.189  -6.264  -7.337  1.00  0.00     0.007 C 
ATOM     32  CD2 LEU A   3     -17.812  -6.422  -4.860  1.00  0.00     0.007 C 
ENDBRANCH  29  30
ENDBRANCH   5  29
ENDBRANCH   1   5
BRANCH   3  33
ATOM     33  CA  ALA A   4     -19.831 -11.562  -3.046  1.00  0.00     0.168 C 
ATOM     34  CB  ALA A   4     -19.720 -11.729  -1.532  1.00  0.00     0.041 C 
BRANCH  33  35
ATOM     35  C   ALA A   4     -21.172 -11.052  -3.463  1.00  0.00     0.242 C 
ATOM     36  N   ARG A   5     -21.511 -11.132  -4.841  1.00  0.00    -0.343 N 
ATOM     37  O   ALA A   4     -21.970 -10.539  -2.633  1.00  0.00    -0.273 OA
ATOM     38  H   UNL     1     -21.073 -11.896  -5.402  1.00  0.00     0.164 HD
BRANCH  36  39
ATOM     39  CA  ARG A   5     -22.690 -10.491  -5.382  1.00  0.00     0.171 C 
BRANCH  39  40
ATOM     40  C   ARG A   5     -23.910 -11.190  -4.875  1.00  0.00     0.243 C 
ATOM     41  N   GLY A   6     -24.993 -10.406  -4.388  1.00  0.00    -0.343 N 
ATOM     42  O   ARG A   5     -23.977 -12.451  -4.872  1.00  0.00    -0.273 OA
ATOM     43  H   UNL     1     -24.916  -9.364  -4.379  1.00  0.00     0.164 HD
BRANCH  41  44
ATOM     44  CA  GLY A   6     -26.217 -11.006  -3.883  1.00  0.00     0.238 C 
BRANCH  44  45
ATOM     45  C   GLY A   6     -27.045 -11.538  -5.010  1.00  0.00     0.322 C 
ATOM     46  O   GLY A   6     -27.151 -10.890  -6.085  1.00  0.00    -0.250 OA
BRANCH  45  47
ATOM     47  OXT GLY A   6     -27.733 -12.737  -4.853  1.00  0.00    -0.480 OA
ATOM     48  H   UNL     1     -28.308 -13.108  -5.599  1.00  0.00     0.296 HD
ENDBRANCH  45  47
ENDBRANCH  44  45
ENDBRANCH  41  44
ENDBRANCH  39  40
BRANCH  39  49
ATOM     49  CB  ARG A   5     -22.658 -10.513  -6.912  1.00  0.00     0.037 C 
BRANCH  49  50
ATOM     50  CG  ARG A   5     -21.466  -9.719  -7.456  1.00  0.00     0.024 C 
BRANCH  50  51
ATOM     51  CD  ARG A   5     -21.602  -9.481  -8.961  1.00  0.00     0.116 C 
BRANCH  51  52
ATOM     52  NE  ARG A   5     -21.190  -8.118  -9.280  1.00  0.00    -0.357 N 
ATOM     53  CZ  ARG A   5     -20.075  -7.775 -10.104  1.00  0.00     0.185 C 
ATOM     54  NH2 ARG A   5     -19.200  -8.775 -10.616  1.00  0.00    -0.370 N 
ATOM     55  H   UNL     1     -21.775  -7.343  -8.892  1.00  0.00     0.163 HD
ATOM     56  H   UNL     1     -19.097  -9.711 -10.171  1.00  0.00     0.159 HD
ATOM     57  H   UNL     1     -18.494  -8.518 -11.342  1.00  0.00     0.159 HD
BRANCH  53  58
ATOM     58  NH1 ARG A   5     -19.848  -6.533 -10.392  1.00  0.00    -0.270 NA
ATOM     59  H   UNL     1     -20.458  -5.763 -10.038  1.00  0.00     0.191 HD
ENDBRANCH  53  58
ENDBRANCH  51  52
ENDBRANCH  50  51
ENDBRANCH  49  50
ENDBRANCH  39  49
ENDBRANCH  36  39
ENDBRANCH  33  35
ENDBRANCH   3  33
TORSDOF 24
