REMARK SMILES CC(C)C[C@H](NC(=O)[C@H](Cc1c[nH]cn1)NC(=O)[C@@H]1CCCN1C(=O)[C@@H](N)CO)C(=O)N[C@@H](CCCNC(=N)N)C(=O)N[C@@H](CC(N)=O)C(=O)O
REMARK SMILES IDX 7 1 8 2 6 3 9 5 16 6 17 7 18 8 19 10 23 11 22 12 20 13 21 14
REMARK SMILES IDX 24 15 25 16 26 17 27 18 28 21 29 22 10 24 11 25 15 26 12 27
REMARK SMILES IDX 14 28 13 29 5 31 30 32 32 33 31 34 33 36 41 37 43 38 42 39
REMARK SMILES IDX 44 41 49 42 50 43 51 44 45 46 46 47 47 48 48 49 34 52 35 53
REMARK SMILES IDX 36 54 37 55 38 56 40 57 39 61 4 63 2 64 1 65 3 66
REMARK H PARENT 6 4 16 9 27 19 27 20 29 23 13 30 32 35 43 40 51 45 47 50 47 51
REMARK H PARENT 37 58 40 59 40 60 39 62
ROOT
ATOM      1  C   HIS A   3     -18.378 -10.528  -4.873  1.00  0.00     0.243 C 
ATOM      2  O   HIS A   3     -18.744 -11.388  -5.719  1.00  0.00    -0.273 OA
ATOM      3  N   LEU A   4     -18.840 -10.572  -3.528  1.00  0.00    -0.342 N 
ATOM      4  H   UNL     1     -18.576  -9.790  -2.885  1.00  0.00     0.164 HD
ENDROOT
BRANCH   1   5
ATOM      5  CA  HIS A   3     -17.443  -9.430  -5.254  1.00  0.00     0.177 C 
BRANCH   5   6
ATOM      6  N   HIS A   3     -16.192 -10.000  -5.731  1.00  0.00    -0.342 N 
ATOM      7  C   PRO A   2     -15.232 -10.540  -4.824  1.00  0.00     0.243 C 
ATOM      8  O   PRO A   2     -15.464 -10.559  -3.585  1.00  0.00    -0.273 OA
ATOM      9  H   UNL     1     -15.998 -10.031  -6.757  1.00  0.00     0.164 HD
BRANCH   7  10
ATOM     10  CA  PRO A   2     -13.935 -11.084  -5.352  1.00  0.00     0.174 C 
ATOM     11  N   PRO A   2     -14.180 -12.065  -6.402  1.00  0.00    -0.329 N 
ATOM     12  CD  PRO A   2     -13.677 -11.636  -7.697  1.00  0.00     0.120 C 
ATOM     13  CB  PRO A   2     -13.082  -9.989  -5.998  1.00  0.00     0.037 C 
ATOM     14  CG  PRO A   2     -13.169 -10.212  -7.505  1.00  0.00     0.024 C 
BRANCH  11  15
ATOM     15  C   SER A   1     -14.843 -13.335  -6.223  1.00  0.00     0.242 C 
ATOM     16  O   SER A   1     -15.107 -14.038  -7.237  1.00  0.00    -0.273 OA
BRANCH  15  17
ATOM     17  CA  SER A   1     -15.293 -13.821  -4.860  1.00  0.00     0.167 C 
BRANCH  17  18
ATOM     18  N   SER A   1     -16.706 -13.486  -4.672  1.00  0.00    -0.318 NA
ATOM     19  H   UNL     1     -17.292 -14.076  -5.306  1.00  0.00     0.119 HD
ATOM     20  H   UNL     1     -16.980 -13.713  -3.689  1.00  0.00     0.119 HD
ENDBRANCH  17  18
BRANCH  17  21
ATOM     21  CB  SER A   1     -15.060 -15.334  -4.683  1.00  0.00     0.184 C 
BRANCH  21  22
ATOM     22  OG  SER A   1     -13.689 -15.631  -4.724  1.00  0.00    -0.394 OA
ATOM     23  H   UNL     1     -13.446 -15.735  -5.681  1.00  0.00     0.210 HD
ENDBRANCH  21  22
ENDBRANCH  17  21
ENDBRANCH  15  17
ENDBRANCH  11  15
ENDBRANCH   7  10
ENDBRANCH   5   6
BRANCH   5  24
ATOM     24  CB  HIS A   3     -18.088  -8.514  -6.303  1.00  0.00     0.093 C 
BRANCH  24  25
ATOM     25  CG  HIS A   3     -17.497  -7.136  -6.263  1.00  0.00     0.061 A 
ATOM     26  ND1 HIS A   3     -16.413  -6.764  -6.973  1.00  0.00    -0.242 NA
ATOM     27  CD2 HIS A   3     -17.907  -6.101  -5.453  1.00  0.00     0.107 A 
ATOM     28  CE1 HIS A   3     -16.198  -5.489  -6.587  1.00  0.00     0.196 A 
ATOM     29  NE2 HIS A   3     -17.086  -5.063  -5.668  1.00  0.00    -0.351 N 
ATOM     30  H   UNL     1     -17.121  -4.125  -5.212  1.00  0.00     0.167 HD
ENDBRANCH  24  25
ENDBRANCH   5  24
ENDBRANCH   1   5
BRANCH   3  31
ATOM     31  CA  LEU A   4     -19.812 -11.540  -3.057  1.00  0.00     0.171 C 
BRANCH  31  32
ATOM     32  C   LEU A   4     -21.167 -11.059  -3.465  1.00  0.00     0.243 C 
ATOM     33  N   ARG A   5     -21.504 -11.140  -4.843  1.00  0.00    -0.343 N 
ATOM     34  O   LEU A   4     -21.969 -10.550  -2.635  1.00  0.00    -0.273 OA
ATOM     35  H   UNL     1     -21.057 -11.897  -5.408  1.00  0.00     0.164 HD
BRANCH  33  36
ATOM     36  CA  ARG A   5     -22.679 -10.497  -5.388  1.00  0.00     0.171 C 
BRANCH  36  37
ATOM     37  C   ARG A   5     -23.897 -11.195  -4.885  1.00  0.00     0.243 C 
ATOM     38  N   ASN A   6     -24.982 -10.402  -4.433  1.00  0.00    -0.341 N 
ATOM     39  O   ARG A   5     -23.965 -12.455  -4.867  1.00  0.00    -0.273 OA
ATOM     40  H   UNL     1     -24.930  -9.364  -4.552  1.00  0.00     0.164 HD
BRANCH  38  41
ATOM     41  CA  ASN A   6     -26.189 -10.994  -3.883  1.00  0.00     0.201 C 
BRANCH  41  42
ATOM     42  C   ASN A   6     -27.052 -11.522  -4.997  1.00  0.00     0.326 C 
ATOM     43  O   ASN A   6     -27.151 -10.892  -6.084  1.00  0.00    -0.250 OA
BRANCH  42  44
ATOM     44  OXT ASN A   6     -27.772 -12.698  -4.811  1.00  0.00    -0.480 OA
ATOM     45  H   UNL     1     -28.370 -13.063  -5.543  1.00  0.00     0.296 HD
ENDBRANCH  42  44
ENDBRANCH  41  42
BRANCH  41  46
ATOM     46  CB  ASN A   6     -26.929  -9.934  -3.062  1.00  0.00     0.136 C 
BRANCH  46  47
ATOM     47  CG  ASN A   6     -28.019 -10.549  -2.252  1.00  0.00     0.220 C 
ATOM     48  ND2 ASN A   6     -27.701 -11.241  -1.053  1.00  0.00    -0.370 N 
ATOM     49  OD1 ASN A   6     -29.213 -10.483  -2.643  1.00  0.00    -0.275 OA
ATOM     50  H   UNL     1     -26.713 -11.314  -0.724  1.00  0.00     0.159 HD
ATOM     51  H   UNL     1     -28.456 -11.688  -0.487  1.00  0.00     0.159 HD
ENDBRANCH  46  47
ENDBRANCH  41  46
ENDBRANCH  38  41
ENDBRANCH  36  37
BRANCH  36  52
ATOM     52  CB  ARG A   5     -22.649 -10.518  -6.916  1.00  0.00     0.037 C 
BRANCH  52  53
ATOM     53  CG  ARG A   5     -21.461  -9.717  -7.459  1.00  0.00     0.024 C 
BRANCH  53  54
ATOM     54  CD  ARG A   5     -21.602  -9.478  -8.964  1.00  0.00     0.116 C 
BRANCH  54  55
ATOM     55  NE  ARG A   5     -21.186  -8.116  -9.284  1.00  0.00    -0.357 N 
ATOM     56  CZ  ARG A   5     -20.069  -7.777 -10.102  1.00  0.00     0.185 C 
ATOM     57  NH2 ARG A   5     -19.198  -8.780 -10.617  1.00  0.00    -0.370 N 
ATOM     58  H   UNL     1     -21.768  -7.335  -8.903  1.00  0.00     0.163 HD
ATOM     59  H   UNL     1     -18.498  -8.536 -11.353  1.00  0.00     0.159 HD
ATOM     60  H   UNL     1     -19.096  -9.715 -10.168  1.00  0.00     0.159 HD
BRANCH  56  61
ATOM     61  NH1 ARG A   5     -19.850  -6.531 -10.379  1.00  0.00    -0.270 NA
ATOM     62  H   UNL     1     -19.044  -6.232 -10.972  1.00  0.00     0.191 HD
ENDBRANCH  56  61
ENDBRANCH  54  55
ENDBRANCH  53  54
ENDBRANCH  52  53
ENDBRANCH  36  52
ENDBRANCH  33  36
ENDBRANCH  31  32
BRANCH  31  63
ATOM     63  CB  LEU A   4     -19.648 -11.690  -1.537  1.00  0.00     0.038 C 
BRANCH  63  64
ATOM     64  CG  LEU A   4     -20.293 -12.955  -0.948  1.00  0.00    -0.015 C 
ATOM     65  CD1 LEU A   4     -19.608 -14.232  -1.464  1.00  0.00     0.007 C 
ATOM     66  CD2 LEU A   4     -20.194 -12.897   0.581  1.00  0.00     0.007 C 
ENDBRANCH  63  64
ENDBRANCH  31  63
ENDBRANCH   3  31
TORSDOF 26
