REMARK SMILES CC(C)C[C@H](NC(=O)[C@H](C)NC(=O)[C@@H](N)CO)C(=O)N[C@@H](C)C(=O)N[C@@H](CCCNC(=N)N)C(=O)N[C@@H](CC(N)=O)C(=O)O
REMARK SMILES IDX 18 1 19 2 20 3 5 5 6 6 7 7 8 8 9 10 10 11 11 12 12 13 13 14
REMARK SMILES IDX 14 16 15 17 16 20 17 21 4 23 2 24 1 25 3 26 21 27 22 28
REMARK SMILES IDX 23 29 25 30 24 31 26 33 34 34 36 35 35 36 37 38 42 39 43 40
REMARK SMILES IDX 44 41 38 43 39 44 40 45 41 46 27 49 28 50 29 51 30 52 31 53
REMARK SMILES IDX 33 54 32 58
REMARK H PARENT 20 4 6 9 11 15 15 18 15 19 17 22 25 32 36 37 44 42 40 47 40 48
REMARK H PARENT 30 55 33 56 33 57 32 59
ROOT
ATOM      1  C   LEU A   3     -18.382 -10.557  -4.862  1.00  0.00     0.243 C 
ATOM      2  O   LEU A   3     -18.757 -11.406  -5.714  1.00  0.00    -0.273 OA
ATOM      3  N   ALA A   4     -18.823 -10.621  -3.508  1.00  0.00    -0.343 N 
ATOM      4  H   UNL     1     -18.482  -9.896  -2.834  1.00  0.00     0.164 HD
ENDROOT
BRANCH   1   5
ATOM      5  CA  LEU A   3     -17.449  -9.460  -5.243  1.00  0.00     0.171 C 
BRANCH   5   6
ATOM      6  N   LEU A   3     -16.208 -10.023  -5.737  1.00  0.00    -0.343 N 
ATOM      7  C   ALA A   2     -15.248 -10.564  -4.839  1.00  0.00     0.242 C 
ATOM      8  O   ALA A   2     -15.467 -10.585  -3.595  1.00  0.00    -0.273 OA
ATOM      9  H   UNL     1     -16.017 -10.042  -6.765  1.00  0.00     0.164 HD
BRANCH   7  10
ATOM     10  CA  ALA A   2     -13.963 -11.085  -5.392  1.00  0.00     0.168 C 
ATOM     11  CB  ALA A   2     -13.925 -12.607  -5.287  1.00  0.00     0.041 C 
BRANCH  10  12
ATOM     12  N   ALA A   2     -12.849 -10.486  -4.673  1.00  0.00    -0.343 N 
ATOM     13  C   SER A   1     -12.601  -9.082  -4.713  1.00  0.00     0.239 C 
ATOM     14  O   SER A   1     -13.366  -8.314  -5.360  1.00  0.00    -0.273 OA
ATOM     15  H   UNL     1     -12.217 -11.093  -4.102  1.00  0.00     0.164 HD
BRANCH  13  16
ATOM     16  CA  SER A   1     -11.442  -8.535  -3.933  1.00  0.00     0.167 C 
BRANCH  16  17
ATOM     17  N   SER A   1     -10.854  -7.386  -4.625  1.00  0.00    -0.318 NA
ATOM     18  H   UNL     1     -11.546  -6.605  -4.697  1.00  0.00     0.119 HD
ATOM     19  H   UNL     1     -10.035  -7.041  -4.072  1.00  0.00     0.119 HD
ENDBRANCH  16  17
BRANCH  16  20
ATOM     20  CB  SER A   1     -11.846  -8.204  -2.482  1.00  0.00     0.184 C 
BRANCH  20  21
ATOM     21  OG  SER A   1     -12.062  -6.828  -2.319  1.00  0.00    -0.394 OA
ATOM     22  H   UNL     1     -12.320  -6.699  -1.369  1.00  0.00     0.210 HD
ENDBRANCH  20  21
ENDBRANCH  16  20
ENDBRANCH  13  16
ENDBRANCH  10  12
ENDBRANCH   7  10
ENDBRANCH   5   6
BRANCH   5  23
ATOM     23  CB  LEU A   3     -18.099  -8.529  -6.273  1.00  0.00     0.038 C 
BRANCH  23  24
ATOM     24  CG  LEU A   3     -17.543  -7.093  -6.222  1.00  0.00    -0.015 C 
ATOM     25  CD1 LEU A   3     -18.189  -6.265  -7.336  1.00  0.00     0.007 C 
ATOM     26  CD2 LEU A   3     -17.813  -6.424  -4.859  1.00  0.00     0.007 C 
ENDBRANCH  23  24
ENDBRANCH   5  23
ENDBRANCH   1   5
BRANCH   3  27
ATOM     27  CA  ALA A   4     -19.827 -11.561  -3.046  1.00  0.00     0.168 C 
ATOM     28  CB  ALA A   4     -19.718 -11.726  -1.532  1.00  0.00     0.041 C 
BRANCH  27  29
ATOM     29  C   ALA A   4     -21.168 -11.054  -3.465  1.00  0.00     0.242 C 
ATOM     30  N   ARG A   5     -21.503 -11.137  -4.843  1.00  0.00    -0.343 N 
ATOM     31  O   ALA A   4     -21.969 -10.540  -2.637  1.00  0.00    -0.273 OA
ATOM     32  H   UNL     1     -21.066 -11.905  -5.401  1.00  0.00     0.164 HD
BRANCH  30  33
ATOM     33  CA  ARG A   5     -22.679 -10.496  -5.388  1.00  0.00     0.171 C 
BRANCH  33  34
ATOM     34  C   ARG A   5     -23.897 -11.194  -4.885  1.00  0.00     0.243 C 
ATOM     35  N   ASN A   6     -24.982 -10.402  -4.433  1.00  0.00    -0.341 N 
ATOM     36  O   ARG A   5     -23.965 -12.454  -4.868  1.00  0.00    -0.273 OA
ATOM     37  H   UNL     1     -24.931  -9.364  -4.552  1.00  0.00     0.164 HD
BRANCH  35  38
ATOM     38  CA  ASN A   6     -26.189 -10.994  -3.883  1.00  0.00     0.201 C 
BRANCH  38  39
ATOM     39  C   ASN A   6     -27.053 -11.522  -4.997  1.00  0.00     0.326 C 
ATOM     40  O   ASN A   6     -27.151 -10.892  -6.084  1.00  0.00    -0.250 OA
BRANCH  39  41
ATOM     41  OXT ASN A   6     -27.773 -12.698  -4.811  1.00  0.00    -0.480 OA
ATOM     42  H   UNL     1     -28.370 -13.063  -5.543  1.00  0.00     0.296 HD
ENDBRANCH  39  41
ENDBRANCH  38  39
BRANCH  38  43
ATOM     43  CB  ASN A   6     -26.930  -9.934  -3.062  1.00  0.00     0.136 C 
BRANCH  43  44
ATOM     44  CG  ASN A   6     -28.019 -10.549  -2.252  1.00  0.00     0.220 C 
ATOM     45  ND2 ASN A   6     -27.701 -11.241  -1.053  1.00  0.00    -0.370 N 
ATOM     46  OD1 ASN A   6     -29.213 -10.484  -2.643  1.00  0.00    -0.275 OA
ATOM     47  H   UNL     1     -26.713 -11.314  -0.724  1.00  0.00     0.159 HD
ATOM     48  H   UNL     1     -28.456 -11.688  -0.487  1.00  0.00     0.159 HD
ENDBRANCH  43  44
ENDBRANCH  38  43
ENDBRANCH  35  38
ENDBRANCH  33  34
BRANCH  33  49
ATOM     49  CB  ARG A   5     -22.649 -10.518  -6.916  1.00  0.00     0.037 C 
BRANCH  49  50
ATOM     50  CG  ARG A   5     -21.461  -9.719  -7.459  1.00  0.00     0.024 C 
BRANCH  50  51
ATOM     51  CD  ARG A   5     -21.602  -9.480  -8.963  1.00  0.00     0.116 C 
BRANCH  51  52
ATOM     52  NE  ARG A   5     -21.190  -8.117  -9.282  1.00  0.00    -0.357 N 
ATOM     53  CZ  ARG A   5     -20.075  -7.775 -10.105  1.00  0.00     0.185 C 
ATOM     54  NH2 ARG A   5     -19.200  -8.774 -10.616  1.00  0.00    -0.370 N 
ATOM     55  H   UNL     1     -21.775  -7.342  -8.893  1.00  0.00     0.163 HD
ATOM     56  H   UNL     1     -19.096  -9.710 -10.171  1.00  0.00     0.159 HD
ATOM     57  H   UNL     1     -18.494  -8.517 -11.342  1.00  0.00     0.159 HD
BRANCH  53  58
ATOM     58  NH1 ARG A   5     -19.847  -6.533 -10.392  1.00  0.00    -0.270 NA
ATOM     59  H   UNL     1     -20.457  -5.762 -10.039  1.00  0.00     0.191 HD
ENDBRANCH  53  58
ENDBRANCH  51  52
ENDBRANCH  50  51
ENDBRANCH  49  50
ENDBRANCH  33  49
ENDBRANCH  30  33
ENDBRANCH  27  29
ENDBRANCH   3  27
TORSDOF 24
