REMARK SMILES CC(C)C[C@H](NC(=O)[C@H](CCC(N)=O)NC(=O)[C@@H](N)CO)C(=O)N[C@@H](C)C(=O)N[C@@H](CCCNC(=N)N)C(=O)N[C@@H](CC(N)=O)C(=O)O
REMARK SMILES IDX 22 1 23 2 24 3 5 5 6 6 7 7 8 8 9 10 15 11 16 12 17 13 18 15
REMARK SMILES IDX 19 16 20 19 21 20 10 22 11 23 12 24 13 25 14 26 4 29 2 30
REMARK SMILES IDX 1 31 3 32 25 33 26 34 27 35 29 36 28 37 30 39 38 40 40 41
REMARK SMILES IDX 39 42 41 44 46 45 47 46 48 47 42 49 43 50 44 51 45 52 31 55
REMARK SMILES IDX 32 56 33 57 34 58 35 59 37 60 36 64
REMARK H PARENT 24 4 6 9 15 14 19 17 19 18 21 21 13 27 13 28 29 38 40 43 48 48
REMARK H PARENT 44 53 44 54 34 61 37 62 37 63 36 65
ROOT
ATOM      1  C   LEU A   3     -18.383 -10.556  -4.861  1.00  0.00     0.243 C 
ATOM      2  O   LEU A   3     -18.757 -11.405  -5.714  1.00  0.00    -0.273 OA
ATOM      3  N   ALA A   4     -18.823 -10.621  -3.507  1.00  0.00    -0.343 N 
ATOM      4  H   UNL     1     -18.481  -9.898  -2.833  1.00  0.00     0.164 HD
ENDROOT
BRANCH   1   5
ATOM      5  CA  LEU A   3     -17.452  -9.459  -5.241  1.00  0.00     0.171 C 
BRANCH   5   6
ATOM      6  N   LEU A   3     -16.211 -10.021  -5.735  1.00  0.00    -0.343 N 
ATOM      7  C   GLN A   2     -15.247 -10.556  -4.837  1.00  0.00     0.243 C 
ATOM      8  O   GLN A   2     -15.466 -10.581  -3.593  1.00  0.00    -0.273 OA
ATOM      9  H   UNL     1     -16.025 -10.049  -6.763  1.00  0.00     0.164 HD
BRANCH   7  10
ATOM     10  CA  GLN A   2     -13.968 -11.081  -5.394  1.00  0.00     0.171 C 
BRANCH  10  11
ATOM     11  N   GLN A   2     -12.851 -10.486  -4.675  1.00  0.00    -0.343 N 
ATOM     12  C   SER A   1     -12.601  -9.082  -4.713  1.00  0.00     0.239 C 
ATOM     13  O   SER A   1     -13.364  -8.313  -5.360  1.00  0.00    -0.273 OA
ATOM     14  H   UNL     1     -12.225 -11.091  -4.096  1.00  0.00     0.164 HD
BRANCH  12  15
ATOM     15  CA  SER A   1     -11.441  -8.536  -3.934  1.00  0.00     0.167 C 
BRANCH  15  16
ATOM     16  N   SER A   1     -10.853  -7.387  -4.624  1.00  0.00    -0.318 NA
ATOM     17  H   UNL     1     -10.034  -7.042  -4.072  1.00  0.00     0.119 HD
ATOM     18  H   UNL     1     -11.545  -6.606  -4.697  1.00  0.00     0.119 HD
ENDBRANCH  15  16
BRANCH  15  19
ATOM     19  CB  SER A   1     -11.846  -8.204  -2.482  1.00  0.00     0.184 C 
BRANCH  19  20
ATOM     20  OG  SER A   1     -12.062  -6.828  -2.319  1.00  0.00    -0.394 OA
ATOM     21  H   UNL     1     -12.321  -6.699  -1.370  1.00  0.00     0.210 HD
ENDBRANCH  19  20
ENDBRANCH  15  19
ENDBRANCH  12  15
ENDBRANCH  10  11
BRANCH  10  22
ATOM     22  CB  GLN A   2     -13.949 -12.612  -5.295  1.00  0.00     0.045 C 
BRANCH  22  23
ATOM     23  CG  GLN A   2     -12.855 -13.221  -6.174  1.00  0.00     0.102 C 
BRANCH  23  24
ATOM     24  CD  GLN A   2     -12.850 -14.715  -6.047  1.00  0.00     0.217 C 
ATOM     25  NE2 GLN A   2     -13.742 -15.508  -6.829  1.00  0.00    -0.370 N 
ATOM     26  OE1 GLN A   2     -12.083 -15.271  -5.217  1.00  0.00    -0.275 OA
ATOM     27  H   UNL     1     -14.401 -15.060  -7.504  1.00  0.00     0.159 HD
ATOM     28  H   UNL     1     -13.748 -16.547  -6.730  1.00  0.00     0.159 HD
ENDBRANCH  23  24
ENDBRANCH  22  23
ENDBRANCH  10  22
ENDBRANCH   7  10
ENDBRANCH   5   6
BRANCH   5  29
ATOM     29  CB  LEU A   3     -18.101  -8.528  -6.273  1.00  0.00     0.038 C 
BRANCH  29  30
ATOM     30  CG  LEU A   3     -17.543  -7.093  -6.222  1.00  0.00    -0.015 C 
ATOM     31  CD1 LEU A   3     -18.188  -6.265  -7.336  1.00  0.00     0.007 C 
ATOM     32  CD2 LEU A   3     -17.812  -6.423  -4.860  1.00  0.00     0.007 C 
ENDBRANCH  29  30
ENDBRANCH   5  29
ENDBRANCH   1   5
BRANCH   3  33
ATOM     33  CA  ALA A   4     -19.828 -11.562  -3.046  1.00  0.00     0.168 C 
ATOM     34  CB  ALA A   4     -19.718 -11.727  -1.532  1.00  0.00     0.041 C 
BRANCH  33  35
ATOM     35  C   ALA A   4     -21.168 -11.054  -3.465  1.00  0.00     0.242 C 
ATOM     36  N   ARG A   5     -21.503 -11.137  -4.844  1.00  0.00    -0.343 N 
ATOM     37  O   ALA A   4     -21.969 -10.540  -2.637  1.00  0.00    -0.273 OA
ATOM     38  H   UNL     1     -21.066 -11.904  -5.402  1.00  0.00     0.164 HD
BRANCH  36  39
ATOM     39  CA  ARG A   5     -22.679 -10.496  -5.388  1.00  0.00     0.171 C 
BRANCH  39  40
ATOM     40  C   ARG A   5     -23.897 -11.194  -4.886  1.00  0.00     0.243 C 
ATOM     41  N   ASN A   6     -24.982 -10.402  -4.433  1.00  0.00    -0.341 N 
ATOM     42  O   ARG A   5     -23.965 -12.454  -4.868  1.00  0.00    -0.273 OA
ATOM     43  H   UNL     1     -24.931  -9.364  -4.552  1.00  0.00     0.164 HD
BRANCH  41  44
ATOM     44  CA  ASN A   6     -26.189 -10.994  -3.883  1.00  0.00     0.201 C 
BRANCH  44  45
ATOM     45  C   ASN A   6     -27.052 -11.522  -4.997  1.00  0.00     0.326 C 
ATOM     46  O   ASN A   6     -27.151 -10.892  -6.084  1.00  0.00    -0.250 OA
BRANCH  45  47
ATOM     47  OXT ASN A   6     -27.773 -12.698  -4.811  1.00  0.00    -0.480 OA
ATOM     48  H   UNL     1     -28.370 -13.063  -5.543  1.00  0.00     0.296 HD
ENDBRANCH  45  47
ENDBRANCH  44  45
BRANCH  44  49
ATOM     49  CB  ASN A   6     -26.930  -9.934  -3.062  1.00  0.00     0.136 C 
BRANCH  49  50
ATOM     50  CG  ASN A   6     -28.019 -10.549  -2.252  1.00  0.00     0.220 C 
ATOM     51  ND2 ASN A   6     -27.701 -11.241  -1.053  1.00  0.00    -0.370 N 
ATOM     52  OD1 ASN A   6     -29.213 -10.484  -2.643  1.00  0.00    -0.275 OA
ATOM     53  H   UNL     1     -28.456 -11.688  -0.487  1.00  0.00     0.159 HD
ATOM     54  H   UNL     1     -26.713 -11.314  -0.724  1.00  0.00     0.159 HD
ENDBRANCH  49  50
ENDBRANCH  44  49
ENDBRANCH  41  44
ENDBRANCH  39  40
BRANCH  39  55
ATOM     55  CB  ARG A   5     -22.649 -10.517  -6.917  1.00  0.00     0.037 C 
BRANCH  55  56
ATOM     56  CG  ARG A   5     -21.462  -9.717  -7.460  1.00  0.00     0.024 C 
BRANCH  56  57
ATOM     57  CD  ARG A   5     -21.602  -9.477  -8.964  1.00  0.00     0.116 C 
BRANCH  57  58
ATOM     58  NE  ARG A   5     -21.186  -8.116  -9.284  1.00  0.00    -0.357 N 
ATOM     59  CZ  ARG A   5     -20.072  -7.777 -10.106  1.00  0.00     0.185 C 
ATOM     60  NH2 ARG A   5     -19.198  -8.780 -10.616  1.00  0.00    -0.370 N 
ATOM     61  H   UNL     1     -21.765  -7.334  -8.899  1.00  0.00     0.163 HD
ATOM     62  H   UNL     1     -19.093  -9.712 -10.162  1.00  0.00     0.159 HD
ATOM     63  H   UNL     1     -18.499  -8.537 -11.353  1.00  0.00     0.159 HD
BRANCH  59  64
ATOM     64  NH1 ARG A   5     -19.855  -6.531 -10.387  1.00  0.00    -0.270 NA
ATOM     65  H   UNL     1     -19.050  -6.233 -10.981  1.00  0.00     0.191 HD
ENDBRANCH  59  64
ENDBRANCH  57  58
ENDBRANCH  56  57
ENDBRANCH  55  56
ENDBRANCH  39  55
ENDBRANCH  36  39
ENDBRANCH  33  35
ENDBRANCH   3  33
TORSDOF 27
