REMARK SMILES N=C(N)NCCC[C@H](NC(=O)[C@@H]1CCCN1C(=O)[C@H](CC(N)=O)NC(=O)[C@H](Cc1ccccc1)NC(=O)[C@@H](N)CO)C(=O)N[C@@H](CC(N)=O)C(=O)O
REMARK SMILES IDX 16 1 12 2 13 3 14 4 15 5 17 6 18 7 19 8 24 9 25 10 26 11
REMARK SMILES IDX 27 13 35 14 36 15 37 16 38 18 39 19 40 22 41 23 28 25 29 26
REMARK SMILES IDX 30 27 34 28 31 29 33 30 32 31 20 32 21 33 22 34 23 35 10 38
REMARK SMILES IDX 9 39 11 40 8 42 42 43 44 44 43 45 45 47 50 48 51 49 52 50
REMARK SMILES IDX 46 52 47 53 48 54 49 55 7 58 6 59 5 60 4 61 2 62 3 63 1 67
REMARK H PARENT 24 12 35 17 39 20 39 21 41 24 22 36 22 37 9 41 44 46 52 51
REMARK H PARENT 48 56 48 57 4 64 3 65 3 66 1 68
ROOT
ATOM      1  N   PRO A   4     -18.921 -10.664  -3.510  1.00  0.00    -0.329 N 
ATOM      2  CA  PRO A   4     -19.696 -11.812  -3.056  1.00  0.00     0.174 C 
ATOM      3  CB  PRO A   4     -19.799 -11.668  -1.536  1.00  0.00     0.037 C 
ATOM      4  CG  PRO A   4     -19.433 -10.219  -1.224  1.00  0.00     0.024 C 
ATOM      5  CD  PRO A   4     -18.677  -9.702  -2.442  1.00  0.00     0.120 C 
ENDROOT
BRANCH   1   6
ATOM      6  C   ASN A   3     -18.430 -10.543  -4.855  1.00  0.00     0.246 C 
ATOM      7  O   ASN A   3     -18.798 -11.375  -5.730  1.00  0.00    -0.272 OA
BRANCH   6   8
ATOM      8  CA  ASN A   3     -17.479  -9.438  -5.232  1.00  0.00     0.180 C 
BRANCH   8   9
ATOM      9  N   ASN A   3     -16.236 -10.014  -5.714  1.00  0.00    -0.342 N 
ATOM     10  C   PHE A   2     -15.264 -10.545  -4.819  1.00  0.00     0.243 C 
ATOM     11  O   PHE A   2     -15.477 -10.575  -3.577  1.00  0.00    -0.273 OA
ATOM     12  H   UNL     1     -16.061 -10.068  -6.744  1.00  0.00     0.164 HD
BRANCH  10  13
ATOM     13  CA  PHE A   2     -13.985 -11.060  -5.384  1.00  0.00     0.175 C 
BRANCH  13  14
ATOM     14  N   PHE A   2     -12.861 -10.484  -4.665  1.00  0.00    -0.343 N 
ATOM     15  C   SER A   1     -12.603  -9.082  -4.709  1.00  0.00     0.239 C 
ATOM     16  O   SER A   1     -13.365  -8.312  -5.357  1.00  0.00    -0.273 OA
ATOM     17  H   UNL     1     -12.226 -11.102  -4.110  1.00  0.00     0.164 HD
BRANCH  15  18
ATOM     18  CA  SER A   1     -11.440  -8.538  -3.933  1.00  0.00     0.167 C 
BRANCH  18  19
ATOM     19  N   SER A   1     -10.845  -7.382  -4.606  1.00  0.00    -0.318 NA
ATOM     20  H   UNL     1     -10.477  -7.690  -5.536  1.00  0.00     0.119 HD
ATOM     21  H   UNL     1     -11.572  -6.652  -4.788  1.00  0.00     0.119 HD
ENDBRANCH  18  19
BRANCH  18  22
ATOM     22  CB  SER A   1     -11.845  -8.203  -2.484  1.00  0.00     0.184 C 
BRANCH  22  23
ATOM     23  OG  SER A   1     -12.055  -6.825  -2.317  1.00  0.00    -0.394 OA
ATOM     24  H   UNL     1     -11.173  -6.419  -2.108  1.00  0.00     0.210 HD
ENDBRANCH  22  23
ENDBRANCH  18  22
ENDBRANCH  15  18
ENDBRANCH  13  14
BRANCH  13  25
ATOM     25  CB  PHE A   2     -13.969 -12.596  -5.328  1.00  0.00     0.070 C 
BRANCH  25  26
ATOM     26  CG  PHE A   2     -12.884 -13.198  -6.184  1.00  0.00    -0.045 A 
ATOM     27  CD1 PHE A   2     -12.722 -12.805  -7.526  1.00  0.00     0.004 A 
ATOM     28  CD2 PHE A   2     -12.094 -14.244  -5.683  1.00  0.00     0.004 A 
ATOM     29  CE1 PHE A   2     -11.746 -13.398  -8.324  1.00  0.00     0.000 A 
ATOM     30  CE2 PHE A   2     -11.134 -14.852  -6.495  1.00  0.00     0.000 A 
ATOM     31  CZ  PHE A   2     -10.953 -14.422  -7.810  1.00  0.00     0.000 A 
ENDBRANCH  25  26
ENDBRANCH  13  25
ENDBRANCH  10  13
ENDBRANCH   8   9
BRANCH   8  32
ATOM     32  CB  ASN A   3     -18.104  -8.519  -6.293  1.00  0.00     0.134 C 
BRANCH  32  33
ATOM     33  CG  ASN A   3     -17.515  -7.139  -6.245  1.00  0.00     0.220 C 
ATOM     34  ND2 ASN A   3     -17.982  -6.187  -5.288  1.00  0.00    -0.370 N 
ATOM     35  OD1 ASN A   3     -16.578  -6.830  -7.029  1.00  0.00    -0.275 OA
ATOM     36  H   UNL     1     -18.734  -6.441  -4.609  1.00  0.00     0.159 HD
ATOM     37  H   UNL     1     -17.567  -5.230  -5.252  1.00  0.00     0.159 HD
ENDBRANCH  32  33
ENDBRANCH   8  32
ENDBRANCH   6   8
ENDBRANCH   1   6
BRANCH   2  38
ATOM     38  C   PRO A   4     -21.057 -11.825  -3.704  1.00  0.00     0.243 C 
ATOM     39  N   ARG A   5     -21.867 -10.638  -3.727  1.00  0.00    -0.343 N 
ATOM     40  O   PRO A   4     -21.486 -12.895  -4.216  1.00  0.00    -0.273 OA
ATOM     41  H   UNL     1     -21.572  -9.833  -3.133  1.00  0.00     0.164 HD
BRANCH  39  42
ATOM     42  CA  ARG A   5     -23.133 -10.567  -4.466  1.00  0.00     0.171 C 
BRANCH  42  43
ATOM     43  C   ARG A   5     -22.919 -10.809  -5.940  1.00  0.00     0.243 C 
ATOM     44  N   ASN A   6     -23.974 -11.373  -6.731  1.00  0.00    -0.341 N 
ATOM     45  O   ARG A   5     -21.829 -10.478  -6.483  1.00  0.00    -0.273 OA
ATOM     46  H   UNL     1     -24.874 -11.618  -6.257  1.00  0.00     0.164 HD
BRANCH  44  47
ATOM     47  CA  ASN A   6     -23.834 -11.584  -8.174  1.00  0.00     0.201 C 
BRANCH  47  48
ATOM     48  C   ASN A   6     -23.877 -10.257  -8.878  1.00  0.00     0.326 C 
ATOM     49  O   ASN A   6     -22.998  -9.967  -9.733  1.00  0.00    -0.250 OA
BRANCH  48  50
ATOM     50  OXT ASN A   6     -24.900  -9.354  -8.600  1.00  0.00    -0.480 OA
ATOM     51  H   UNL     1     -24.944  -8.458  -9.070  1.00  0.00     0.296 HD
ENDBRANCH  48  50
ENDBRANCH  47  48
BRANCH  47  52
ATOM     52  CB  ASN A   6     -24.952 -12.511  -8.686  1.00  0.00     0.136 C 
BRANCH  52  53
ATOM     53  CG  ASN A   6     -24.734 -12.900 -10.120  1.00  0.00     0.220 C 
ATOM     54  ND2 ASN A   6     -25.355 -12.164 -11.174  1.00  0.00    -0.370 N 
ATOM     55  OD1 ASN A   6     -23.969 -13.862 -10.398  1.00  0.00    -0.275 OA
ATOM     56  H   UNL     1     -25.192 -12.429 -12.171  1.00  0.00     0.159 HD
ATOM     57  H   UNL     1     -25.974 -11.350 -10.962  1.00  0.00     0.159 HD
ENDBRANCH  52  53
ENDBRANCH  47  52
ENDBRANCH  44  47
ENDBRANCH  42  43
BRANCH  42  58
ATOM     58  CB  ARG A   5     -23.881  -9.235  -4.201  1.00  0.00     0.037 C 
BRANCH  58  59
ATOM     59  CG  ARG A   5     -23.388  -8.003  -4.991  1.00  0.00     0.024 C 
BRANCH  59  60
ATOM     60  CD  ARG A   5     -21.970  -7.560  -4.611  1.00  0.00     0.116 C 
BRANCH  60  61
ATOM     61  NE  ARG A   5     -21.631  -6.299  -5.269  1.00  0.00    -0.357 N 
ATOM     62  CZ  ARG A   5     -21.277  -6.209  -6.658  1.00  0.00     0.185 C 
ATOM     63  NH2 ARG A   5     -20.826  -4.961  -7.191  1.00  0.00    -0.370 N 
ATOM     64  H   UNL     1     -21.544  -5.443  -4.677  1.00  0.00     0.163 HD
ATOM     65  H   UNL     1     -20.756  -4.121  -6.578  1.00  0.00     0.159 HD
ATOM     66  H   UNL     1     -20.548  -4.873  -8.193  1.00  0.00     0.159 HD
BRANCH  62  67
ATOM     67  NH1 ARG A   5     -21.352  -7.251  -7.424  1.00  0.00    -0.270 NA
ATOM     68  H   UNL     1     -21.095  -7.211  -8.436  1.00  0.00     0.191 HD
ENDBRANCH  62  67
ENDBRANCH  60  61
ENDBRANCH  59  60
ENDBRANCH  58  59
ENDBRANCH  42  58
ENDBRANCH  39  42
ENDBRANCH   2  38
TORSDOF 26
