REMARK SMILES CC(C)C[C@H](NC(=O)[C@H](Cc1ccccc1)NC(=O)[C@H](C)N)C(=O)N[C@@H](C)C(=O)N[C@@H](CCCNC(=N)N)C(=O)N[C@@H](CC(N)=O)C(=O)O
REMARK SMILES IDX 26 1 27 2 25 3 23 4 24 5 5 7 6 8 7 9 8 10 9 12 17 13 18 14
REMARK SMILES IDX 19 15 20 17 21 18 22 19 10 22 11 23 12 24 16 25 13 26 15 27
REMARK SMILES IDX 14 28 4 29 2 30 1 31 3 32 28 33 30 34 29 35 31 37 39 38
REMARK SMILES IDX 41 39 40 40 42 42 47 43 48 44 49 45 43 47 44 48 45 49 46 50
REMARK SMILES IDX 32 53 33 54 34 55 35 56 36 57 38 58 37 62
REMARK H PARENT 25 6 6 11 17 16 22 20 22 21 30 36 41 41 49 46 45 51 45 52
REMARK H PARENT 35 59 38 60 38 61 37 63
ROOT
ATOM      1  CA  ALA A   4     -19.829 -11.563  -3.045  1.00  0.00     0.168 C 
ATOM      2  CB  ALA A   4     -19.720 -11.728  -1.531  1.00  0.00     0.041 C 
ENDROOT
BRANCH   1   3
ATOM      3  N   ALA A   4     -18.824 -10.623  -3.505  1.00  0.00    -0.343 N 
ATOM      4  C   LEU A   3     -18.386 -10.555  -4.860  1.00  0.00     0.243 C 
ATOM      5  O   LEU A   3     -18.759 -11.405  -5.713  1.00  0.00    -0.273 OA
ATOM      6  H   UNL     1     -18.480  -9.902  -2.830  1.00  0.00     0.164 HD
BRANCH   4   7
ATOM      7  CA  LEU A   3     -17.457  -9.457  -5.238  1.00  0.00     0.171 C 
BRANCH   7   8
ATOM      8  N   LEU A   3     -16.216 -10.019  -5.727  1.00  0.00    -0.343 N 
ATOM      9  C   PHE A   2     -15.251 -10.547  -4.825  1.00  0.00     0.243 C 
ATOM     10  O   PHE A   2     -15.471 -10.577  -3.582  1.00  0.00    -0.273 OA
ATOM     11  H   UNL     1     -16.040 -10.068  -6.757  1.00  0.00     0.164 HD
BRANCH   9  12
ATOM     12  CA  PHE A   2     -13.973 -11.062  -5.384  1.00  0.00     0.175 C 
BRANCH  12  13
ATOM     13  N   PHE A   2     -12.852 -10.487  -4.662  1.00  0.00    -0.343 N 
ATOM     14  C   ALA A   1     -12.593  -9.085  -4.707  1.00  0.00     0.237 C 
ATOM     15  O   ALA A   1     -13.354  -8.314  -5.357  1.00  0.00    -0.273 OA
ATOM     16  H   UNL     1     -12.216 -11.105  -4.107  1.00  0.00     0.164 HD
BRANCH  14  17
ATOM     17  CA  ALA A   1     -11.441  -8.539  -3.922  1.00  0.00     0.138 C 
ATOM     18  CB  ALA A   1     -11.884  -8.219  -2.492  1.00  0.00     0.035 C 
BRANCH  17  19
ATOM     19  N   ALA A   1     -10.887  -7.360  -4.584  1.00  0.00    -0.320 NA
ATOM     20  H   UNL     1     -11.555  -6.559  -4.493  1.00  0.00     0.119 HD
ATOM     21  H   UNL     1     -10.008  -7.083  -4.089  1.00  0.00     0.119 HD
ENDBRANCH  17  19
ENDBRANCH  14  17
ENDBRANCH  12  13
BRANCH  12  22
ATOM     22  CB  PHE A   2     -13.963 -12.597  -5.327  1.00  0.00     0.070 C 
BRANCH  22  23
ATOM     23  CG  PHE A   2     -12.882 -13.200  -6.184  1.00  0.00    -0.045 A 
ATOM     24  CD1 PHE A   2     -12.722 -12.808  -7.527  1.00  0.00     0.004 A 
ATOM     25  CD2 PHE A   2     -12.091 -14.245  -5.683  1.00  0.00     0.004 A 
ATOM     26  CE1 PHE A   2     -11.746 -13.400  -8.325  1.00  0.00     0.000 A 
ATOM     27  CE2 PHE A   2     -11.132 -14.854  -6.496  1.00  0.00     0.000 A 
ATOM     28  CZ  PHE A   2     -10.954 -14.425  -7.812  1.00  0.00     0.000 A 
ENDBRANCH  22  23
ENDBRANCH  12  22
ENDBRANCH   9  12
ENDBRANCH   7   8
BRANCH   7  29
ATOM     29  CB  LEU A   3     -18.102  -8.527  -6.272  1.00  0.00     0.038 C 
BRANCH  29  30
ATOM     30  CG  LEU A   3     -17.544  -7.092  -6.222  1.00  0.00    -0.015 C 
ATOM     31  CD1 LEU A   3     -18.189  -6.265  -7.337  1.00  0.00     0.007 C 
ATOM     32  CD2 LEU A   3     -17.812  -6.422  -4.860  1.00  0.00     0.007 C 
ENDBRANCH  29  30
ENDBRANCH   7  29
ENDBRANCH   4   7
ENDBRANCH   1   3
BRANCH   1  33
ATOM     33  C   ALA A   4     -21.168 -11.055  -3.465  1.00  0.00     0.242 C 
ATOM     34  N   ARG A   5     -21.503 -11.138  -4.843  1.00  0.00    -0.343 N 
ATOM     35  O   ALA A   4     -21.969 -10.540  -2.637  1.00  0.00    -0.273 OA
ATOM     36  H   UNL     1     -21.067 -11.905  -5.401  1.00  0.00     0.164 HD
BRANCH  34  37
ATOM     37  CA  ARG A   5     -22.679 -10.496  -5.388  1.00  0.00     0.171 C 
BRANCH  37  38
ATOM     38  C   ARG A   5     -23.897 -11.194  -4.886  1.00  0.00     0.243 C 
ATOM     39  N   ASN A   6     -24.982 -10.402  -4.433  1.00  0.00    -0.341 N 
ATOM     40  O   ARG A   5     -23.965 -12.454  -4.868  1.00  0.00    -0.273 OA
ATOM     41  H   UNL     1     -24.931  -9.364  -4.552  1.00  0.00     0.164 HD
BRANCH  39  42
ATOM     42  CA  ASN A   6     -26.189 -10.994  -3.883  1.00  0.00     0.201 C 
BRANCH  42  43
ATOM     43  C   ASN A   6     -27.053 -11.522  -4.997  1.00  0.00     0.326 C 
ATOM     44  O   ASN A   6     -27.151 -10.892  -6.084  1.00  0.00    -0.250 OA
BRANCH  43  45
ATOM     45  OXT ASN A   6     -27.773 -12.698  -4.811  1.00  0.00    -0.480 OA
ATOM     46  H   UNL     1     -28.370 -13.063  -5.543  1.00  0.00     0.296 HD
ENDBRANCH  43  45
ENDBRANCH  42  43
BRANCH  42  47
ATOM     47  CB  ASN A   6     -26.930  -9.934  -3.062  1.00  0.00     0.136 C 
BRANCH  47  48
ATOM     48  CG  ASN A   6     -28.019 -10.549  -2.252  1.00  0.00     0.220 C 
ATOM     49  ND2 ASN A   6     -27.701 -11.241  -1.053  1.00  0.00    -0.370 N 
ATOM     50  OD1 ASN A   6     -29.213 -10.484  -2.643  1.00  0.00    -0.275 OA
ATOM     51  H   UNL     1     -28.456 -11.688  -0.487  1.00  0.00     0.159 HD
ATOM     52  H   UNL     1     -26.713 -11.314  -0.724  1.00  0.00     0.159 HD
ENDBRANCH  47  48
ENDBRANCH  42  47
ENDBRANCH  39  42
ENDBRANCH  37  38
BRANCH  37  53
ATOM     53  CB  ARG A   5     -22.649 -10.518  -6.916  1.00  0.00     0.037 C 
BRANCH  53  54
ATOM     54  CG  ARG A   5     -21.461  -9.719  -7.459  1.00  0.00     0.024 C 
BRANCH  54  55
ATOM     55  CD  ARG A   5     -21.602  -9.480  -8.963  1.00  0.00     0.116 C 
BRANCH  55  56
ATOM     56  NE  ARG A   5     -21.190  -8.117  -9.282  1.00  0.00    -0.357 N 
ATOM     57  CZ  ARG A   5     -20.075  -7.775 -10.105  1.00  0.00     0.185 C 
ATOM     58  NH2 ARG A   5     -19.200  -8.774 -10.616  1.00  0.00    -0.370 N 
ATOM     59  H   UNL     1     -21.775  -7.342  -8.894  1.00  0.00     0.163 HD
ATOM     60  H   UNL     1     -19.096  -9.710 -10.171  1.00  0.00     0.159 HD
ATOM     61  H   UNL     1     -18.494  -8.517 -11.342  1.00  0.00     0.159 HD
BRANCH  57  62
ATOM     62  NH1 ARG A   5     -19.847  -6.533 -10.392  1.00  0.00    -0.270 NA
ATOM     63  H   UNL     1     -20.457  -5.762 -10.039  1.00  0.00     0.191 HD
ENDBRANCH  57  62
ENDBRANCH  55  56
ENDBRANCH  54  55
ENDBRANCH  53  54
ENDBRANCH  37  53
ENDBRANCH  34  37
ENDBRANCH   1  33
TORSDOF 24
