REMARK SMILES CC(C)C[C@H](NC(=O)[C@H](Cc1ccccc1)NC(=O)[C@@H](N)Cc1c[nH]cn1)C(=O)N[C@@H](CCCNC(=N)N)C(=O)N[C@@H](CCCNC(=N)N)C(=O)N[C@@H](CC(N)=O)C(=O)O
REMARK SMILES IDX 28 1 29 2 30 3 5 5 6 6 7 7 8 8 9 10 17 11 18 12 19 13 20 15
REMARK SMILES IDX 21 16 22 19 23 20 27 21 24 22 26 23 25 24 10 26 11 27 12 28
REMARK SMILES IDX 16 29 13 30 15 31 14 32 4 33 2 34 1 35 3 36 31 37 39 38
REMARK SMILES IDX 41 39 40 40 42 42 50 43 52 44 51 45 53 47 58 48 59 49 60 50
REMARK SMILES IDX 54 52 55 53 56 54 57 55 43 58 44 59 45 60 46 61 47 62 49 63
REMARK SMILES IDX 48 67 32 69 33 70 34 71 35 72 36 73 38 74 37 78
REMARK H PARENT 30 4 6 9 17 14 21 17 21 18 25 25 41 41 52 46 60 51 56 56 56 57
REMARK H PARENT 46 64 49 65 49 66 48 68 35 75 38 76 38 77 37 79
ROOT
ATOM      1  C   LEU A   3     -18.384 -10.546  -4.865  1.00  0.00     0.243 C 
ATOM      2  O   LEU A   3     -18.750 -11.405  -5.712  1.00  0.00    -0.273 OA
ATOM      3  N   ARG A   4     -18.846 -10.584  -3.520  1.00  0.00    -0.343 N 
ATOM      4  H   UNL     1     -18.588  -9.799  -2.877  1.00  0.00     0.164 HD
ENDROOT
BRANCH   1   5
ATOM      5  CA  LEU A   3     -17.452  -9.454  -5.243  1.00  0.00     0.171 C 
BRANCH   5   6
ATOM      6  N   LEU A   3     -16.213 -10.020  -5.731  1.00  0.00    -0.343 N 
ATOM      7  C   PHE A   2     -15.250 -10.547  -4.827  1.00  0.00     0.243 C 
ATOM      8  O   PHE A   2     -15.472 -10.577  -3.584  1.00  0.00    -0.273 OA
ATOM      9  H   UNL     1     -16.037 -10.071  -6.760  1.00  0.00     0.164 HD
BRANCH   7  10
ATOM     10  CA  PHE A   2     -13.972 -11.062  -5.384  1.00  0.00     0.175 C 
BRANCH  10  11
ATOM     11  N   PHE A   2     -12.851 -10.486  -4.661  1.00  0.00    -0.343 N 
ATOM     12  C   HIS A   1     -12.592  -9.084  -4.706  1.00  0.00     0.237 C 
ATOM     13  O   HIS A   1     -13.352  -8.313  -5.356  1.00  0.00    -0.273 OA
ATOM     14  H   UNL     1     -12.216 -11.104  -4.105  1.00  0.00     0.164 HD
BRANCH  12  15
ATOM     15  CA  HIS A   1     -11.439  -8.539  -3.922  1.00  0.00     0.147 C 
BRANCH  15  16
ATOM     16  N   HIS A   1     -10.889  -7.361  -4.593  1.00  0.00    -0.320 NA
ATOM     17  H   UNL     1     -11.524  -6.542  -4.449  1.00  0.00     0.119 HD
ATOM     18  H   UNL     1      -9.967  -7.122  -4.162  1.00  0.00     0.119 HD
ENDBRANCH  15  16
BRANCH  15  19
ATOM     19  CB  HIS A   1     -11.891  -8.223  -2.485  1.00  0.00     0.086 C 
BRANCH  19  20
ATOM     20  CG  HIS A   1     -10.737  -7.821  -1.617  1.00  0.00     0.060 A 
ATOM     21  ND1 HIS A   1     -10.418  -6.543  -1.330  1.00  0.00    -0.242 NA
ATOM     22  CD2 HIS A   1      -9.816  -8.673  -1.052  1.00  0.00     0.107 A 
ATOM     23  CE1 HIS A   1      -9.304  -6.650  -0.576  1.00  0.00     0.196 A 
ATOM     24  NE2 HIS A   1      -8.917  -7.927  -0.393  1.00  0.00    -0.351 N 
ATOM     25  H   UNL     1      -8.087  -8.265   0.143  1.00  0.00     0.167 HD
ENDBRANCH  19  20
ENDBRANCH  15  19
ENDBRANCH  12  15
ENDBRANCH  10  11
BRANCH  10  26
ATOM     26  CB  PHE A   2     -13.963 -12.597  -5.326  1.00  0.00     0.070 C 
BRANCH  26  27
ATOM     27  CG  PHE A   2     -12.882 -13.200  -6.184  1.00  0.00    -0.045 A 
ATOM     28  CD1 PHE A   2     -12.722 -12.808  -7.527  1.00  0.00     0.004 A 
ATOM     29  CD2 PHE A   2     -12.090 -14.245  -5.683  1.00  0.00     0.004 A 
ATOM     30  CE1 PHE A   2     -11.746 -13.400  -8.325  1.00  0.00     0.000 A 
ATOM     31  CE2 PHE A   2     -11.132 -14.854  -6.496  1.00  0.00     0.000 A 
ATOM     32  CZ  PHE A   2     -10.954 -14.425  -7.812  1.00  0.00     0.000 A 
ENDBRANCH  26  27
ENDBRANCH  10  26
ENDBRANCH   7  10
ENDBRANCH   5   6
BRANCH   5  33
ATOM     33  CB  LEU A   3     -18.098  -8.525  -6.277  1.00  0.00     0.038 C 
BRANCH  33  34
ATOM     34  CG  LEU A   3     -17.542  -7.089  -6.223  1.00  0.00    -0.015 C 
ATOM     35  CD1 LEU A   3     -18.188  -6.262  -7.337  1.00  0.00     0.007 C 
ATOM     36  CD2 LEU A   3     -17.813  -6.422  -4.860  1.00  0.00     0.007 C 
ENDBRANCH  33  34
ENDBRANCH   5  33
ENDBRANCH   1   5
BRANCH   3  37
ATOM     37  CA  ARG A   4     -19.821 -11.545  -3.051  1.00  0.00     0.171 C 
BRANCH  37  38
ATOM     38  C   ARG A   4     -21.171 -11.058  -3.463  1.00  0.00     0.243 C 
ATOM     39  N   ARG A   5     -21.505 -11.139  -4.842  1.00  0.00    -0.343 N 
ATOM     40  O   ARG A   4     -21.973 -10.546  -2.635  1.00  0.00    -0.273 OA
ATOM     41  H   UNL     1     -21.064 -11.902  -5.403  1.00  0.00     0.164 HD
BRANCH  39  42
ATOM     42  CA  ARG A   5     -22.680 -10.497  -5.388  1.00  0.00     0.171 C 
BRANCH  42  43
ATOM     43  C   ARG A   5     -23.898 -11.195  -4.886  1.00  0.00     0.243 C 
ATOM     44  N   ASN A   6     -24.982 -10.402  -4.433  1.00  0.00    -0.341 N 
ATOM     45  O   ARG A   5     -23.965 -12.455  -4.867  1.00  0.00    -0.273 OA
ATOM     46  H   UNL     1     -24.931  -9.364  -4.552  1.00  0.00     0.164 HD
BRANCH  44  47
ATOM     47  CA  ASN A   6     -26.189 -10.994  -3.883  1.00  0.00     0.201 C 
BRANCH  47  48
ATOM     48  C   ASN A   6     -27.053 -11.522  -4.997  1.00  0.00     0.326 C 
ATOM     49  O   ASN A   6     -27.151 -10.892  -6.084  1.00  0.00    -0.250 OA
BRANCH  48  50
ATOM     50  OXT ASN A   6     -27.773 -12.698  -4.811  1.00  0.00    -0.480 OA
ATOM     51  H   UNL     1     -28.370 -13.063  -5.543  1.00  0.00     0.296 HD
ENDBRANCH  48  50
ENDBRANCH  47  48
BRANCH  47  52
ATOM     52  CB  ASN A   6     -26.930  -9.934  -3.062  1.00  0.00     0.136 C 
BRANCH  52  53
ATOM     53  CG  ASN A   6     -28.019 -10.549  -2.252  1.00  0.00     0.220 C 
ATOM     54  ND2 ASN A   6     -27.701 -11.242  -1.053  1.00  0.00    -0.370 N 
ATOM     55  OD1 ASN A   6     -29.213 -10.484  -2.642  1.00  0.00    -0.275 OA
ATOM     56  H   UNL     1     -26.713 -11.315  -0.724  1.00  0.00     0.159 HD
ATOM     57  H   UNL     1     -28.456 -11.688  -0.487  1.00  0.00     0.159 HD
ENDBRANCH  52  53
ENDBRANCH  47  52
ENDBRANCH  44  47
ENDBRANCH  42  43
BRANCH  42  58
ATOM     58  CB  ARG A   5     -22.649 -10.518  -6.916  1.00  0.00     0.037 C 
BRANCH  58  59
ATOM     59  CG  ARG A   5     -21.462  -9.717  -7.459  1.00  0.00     0.024 C 
BRANCH  59  60
ATOM     60  CD  ARG A   5     -21.602  -9.477  -8.963  1.00  0.00     0.116 C 
BRANCH  60  61
ATOM     61  NE  ARG A   5     -21.186  -8.116  -9.283  1.00  0.00    -0.357 N 
ATOM     62  CZ  ARG A   5     -20.072  -7.777 -10.106  1.00  0.00     0.185 C 
ATOM     63  NH2 ARG A   5     -19.198  -8.780 -10.616  1.00  0.00    -0.370 N 
ATOM     64  H   UNL     1     -21.765  -7.335  -8.899  1.00  0.00     0.163 HD
ATOM     65  H   UNL     1     -18.499  -8.537 -11.353  1.00  0.00     0.159 HD
ATOM     66  H   UNL     1     -19.093  -9.712 -10.162  1.00  0.00     0.159 HD
BRANCH  62  67
ATOM     67  NH1 ARG A   5     -19.856  -6.532 -10.387  1.00  0.00    -0.270 NA
ATOM     68  H   UNL     1     -19.051  -6.233 -10.981  1.00  0.00     0.191 HD
ENDBRANCH  62  67
ENDBRANCH  60  61
ENDBRANCH  59  60
ENDBRANCH  58  59
ENDBRANCH  42  58
ENDBRANCH  39  42
ENDBRANCH  37  38
BRANCH  37  69
ATOM     69  CB  ARG A   4     -19.665 -11.704  -1.529  1.00  0.00     0.037 C 
BRANCH  69  70
ATOM     70  CG  ARG A   4     -20.324 -12.968  -0.975  1.00  0.00     0.024 C 
BRANCH  70  71
ATOM     71  CD  ARG A   4     -19.607 -14.246  -1.435  1.00  0.00     0.116 C 
BRANCH  71  72
ATOM     72  NE  ARG A   4     -20.122 -15.404  -0.704  1.00  0.00    -0.357 N 
ATOM     73  CZ  ARG A   4     -21.415 -16.001  -0.919  1.00  0.00     0.185 C 
ATOM     74  NH2 ARG A   4     -21.861 -17.035  -0.042  1.00  0.00    -0.370 N 
ATOM     75  H   UNL     1     -19.502 -15.829   0.022  1.00  0.00     0.163 HD
ATOM     76  H   UNL     1     -21.264 -17.350   0.755  1.00  0.00     0.159 HD
ATOM     77  H   UNL     1     -22.792 -17.487  -0.184  1.00  0.00     0.159 HD
BRANCH  73  78
ATOM     78  NH1 ARG A   4     -22.181 -15.636  -1.901  1.00  0.00    -0.270 NA
ATOM     79  H   UNL     1     -21.928 -14.901  -2.595  1.00  0.00     0.191 HD
ENDBRANCH  73  78
ENDBRANCH  71  72
ENDBRANCH  70  71
ENDBRANCH  69  70
ENDBRANCH  37  69
ENDBRANCH   3  37
TORSDOF 31
