REMARK SMILES C[C@H](NC(=O)[C@@H]1CCCN1C(=O)[C@H](Cc1ccccc1)NC(=O)[C@@H](N)CO)C(=O)N[C@@H](CCCNC(=N)N)C(=O)N[C@@H](CC(N)=O)C(=O)O
REMARK SMILES IDX 4 1 5 2 3 3 6 5 10 6 9 7 7 8 8 9 11 10 12 11 13 12 21 13
REMARK SMILES IDX 22 14 23 15 24 17 25 18 26 21 27 22 14 24 15 25 16 26 20 27
REMARK SMILES IDX 17 28 19 29 18 30 2 31 1 32 28 33 30 34 29 35 31 37 39 38
REMARK SMILES IDX 41 39 40 40 42 42 47 43 48 44 49 45 43 47 44 48 45 49 46 50
REMARK SMILES IDX 32 53 33 54 34 55 35 56 36 57 38 58 37 62
REMARK H PARENT 3 4 21 16 25 19 25 20 27 23 30 36 41 41 49 46 45 51 45 52
REMARK H PARENT 35 59 38 60 38 61 37 63
ROOT
ATOM      1  C   PRO A   3     -18.360 -10.557  -4.879  1.00  0.00     0.243 C 
ATOM      2  O   PRO A   3     -18.772 -11.400  -5.720  1.00  0.00    -0.273 OA
ATOM      3  N   ALA A   4     -18.807 -10.594  -3.525  1.00  0.00    -0.343 N 
ATOM      4  H   UNL     1     -18.462  -9.853  -2.872  1.00  0.00     0.164 HD
ENDROOT
BRANCH   1   5
ATOM      5  CA  PRO A   3     -17.411  -9.471  -5.295  1.00  0.00     0.174 C 
ATOM      6  N   PRO A   3     -16.657  -9.841  -6.490  1.00  0.00    -0.329 N 
ATOM      7  CD  PRO A   3     -16.832  -8.889  -7.574  1.00  0.00     0.120 C 
ATOM      8  CB  PRO A   3     -18.178  -8.197  -5.665  1.00  0.00     0.037 C 
ATOM      9  CG  PRO A   3     -17.578  -7.704  -6.978  1.00  0.00     0.024 C 
BRANCH   6  10
ATOM     10  C   PHE A   2     -15.756 -10.963  -6.602  1.00  0.00     0.246 C 
ATOM     11  O   PHE A   2     -15.262 -11.243  -7.729  1.00  0.00    -0.272 OA
BRANCH  10  12
ATOM     12  CA  PHE A   2     -15.413 -11.844  -5.420  1.00  0.00     0.176 C 
BRANCH  12  13
ATOM     13  N   PHE A   2     -16.091 -13.136  -5.569  1.00  0.00    -0.343 N 
ATOM     14  C   SER A   1     -16.690 -13.836  -4.467  1.00  0.00     0.239 C 
ATOM     15  O   SER A   1     -16.764 -13.292  -3.331  1.00  0.00    -0.273 OA
ATOM     16  H   UNL     1     -16.017 -13.627  -6.489  1.00  0.00     0.164 HD
BRANCH  14  17
ATOM     17  CA  SER A   1     -17.250 -15.221  -4.665  1.00  0.00     0.167 C 
BRANCH  17  18
ATOM     18  N   SER A   1     -16.748 -16.112  -3.617  1.00  0.00    -0.318 NA
ATOM     19  H   UNL     1     -15.705 -16.146  -3.688  1.00  0.00     0.119 HD
ATOM     20  H   UNL     1     -17.078 -17.084  -3.821  1.00  0.00     0.119 HD
ENDBRANCH  17  18
BRANCH  17  21
ATOM     21  CB  SER A   1     -18.783 -15.171  -4.634  1.00  0.00     0.184 C 
BRANCH  21  22
ATOM     22  OG  SER A   1     -19.310 -16.414  -5.008  1.00  0.00    -0.394 OA
ATOM     23  H   UNL     1     -20.297 -16.319  -4.962  1.00  0.00     0.210 HD
ENDBRANCH  21  22
ENDBRANCH  17  21
ENDBRANCH  14  17
ENDBRANCH  12  13
BRANCH  12  24
ATOM     24  CB  PHE A   2     -13.890 -12.050  -5.322  1.00  0.00     0.070 C 
BRANCH  24  25
ATOM     25  CG  PHE A   2     -13.518 -12.813  -4.076  1.00  0.00    -0.045 A 
ATOM     26  CD1 PHE A   2     -13.448 -12.152  -2.838  1.00  0.00     0.004 A 
ATOM     27  CD2 PHE A   2     -13.301 -14.200  -4.130  1.00  0.00     0.004 A 
ATOM     28  CE1 PHE A   2     -13.152 -12.868  -1.674  1.00  0.00     0.000 A 
ATOM     29  CE2 PHE A   2     -13.004 -14.912  -2.963  1.00  0.00     0.000 A 
ATOM     30  CZ  PHE A   2     -12.930 -14.247  -1.737  1.00  0.00     0.000 A 
ENDBRANCH  24  25
ENDBRANCH  12  24
ENDBRANCH  10  12
ENDBRANCH   6  10
ENDBRANCH   1   5
BRANCH   3  31
ATOM     31  CA  ALA A   4     -19.811 -11.538  -3.053  1.00  0.00     0.168 C 
ATOM     32  CB  ALA A   4     -19.698 -11.708  -1.540  1.00  0.00     0.041 C 
BRANCH  31  33
ATOM     33  C   ALA A   4     -21.159 -11.045  -3.467  1.00  0.00     0.242 C 
ATOM     34  N   ARG A   5     -21.501 -11.139  -4.843  1.00  0.00    -0.343 N 
ATOM     35  O   ALA A   4     -21.963 -10.539  -2.636  1.00  0.00    -0.273 OA
ATOM     36  H   UNL     1     -21.073 -11.915  -5.395  1.00  0.00     0.164 HD
BRANCH  34  37
ATOM     37  CA  ARG A   5     -22.677 -10.496  -5.387  1.00  0.00     0.171 C 
BRANCH  37  38
ATOM     38  C   ARG A   5     -23.896 -11.194  -4.885  1.00  0.00     0.243 C 
ATOM     39  N   ASN A   6     -24.981 -10.402  -4.433  1.00  0.00    -0.341 N 
ATOM     40  O   ARG A   5     -23.964 -12.455  -4.868  1.00  0.00    -0.273 OA
ATOM     41  H   UNL     1     -24.930  -9.364  -4.553  1.00  0.00     0.164 HD
BRANCH  39  42
ATOM     42  CA  ASN A   6     -26.189 -10.994  -3.883  1.00  0.00     0.201 C 
BRANCH  42  43
ATOM     43  C   ASN A   6     -27.052 -11.522  -4.997  1.00  0.00     0.326 C 
ATOM     44  O   ASN A   6     -27.151 -10.892  -6.084  1.00  0.00    -0.250 OA
BRANCH  43  45
ATOM     45  OXT ASN A   6     -27.772 -12.698  -4.811  1.00  0.00    -0.480 OA
ATOM     46  H   UNL     1     -28.369 -13.063  -5.543  1.00  0.00     0.296 HD
ENDBRANCH  43  45
ENDBRANCH  42  43
BRANCH  42  47
ATOM     47  CB  ASN A   6     -26.929  -9.934  -3.062  1.00  0.00     0.136 C 
BRANCH  47  48
ATOM     48  CG  ASN A   6     -28.019 -10.549  -2.252  1.00  0.00     0.220 C 
ATOM     49  ND2 ASN A   6     -27.701 -11.241  -1.053  1.00  0.00    -0.370 N 
ATOM     50  OD1 ASN A   6     -29.213 -10.483  -2.643  1.00  0.00    -0.275 OA
ATOM     51  H   UNL     1     -28.456 -11.688  -0.487  1.00  0.00     0.159 HD
ATOM     52  H   UNL     1     -26.713 -11.314  -0.724  1.00  0.00     0.159 HD
ENDBRANCH  47  48
ENDBRANCH  42  47
ENDBRANCH  39  42
ENDBRANCH  37  38
BRANCH  37  53
ATOM     53  CB  ARG A   5     -22.646 -10.518  -6.915  1.00  0.00     0.037 C 
BRANCH  53  54
ATOM     54  CG  ARG A   5     -21.460  -9.714  -7.458  1.00  0.00     0.024 C 
BRANCH  54  55
ATOM     55  CD  ARG A   5     -21.603  -9.477  -8.962  1.00  0.00     0.116 C 
BRANCH  55  56
ATOM     56  NE  ARG A   5     -21.186  -8.117  -9.287  1.00  0.00    -0.357 N 
ATOM     57  CZ  ARG A   5     -20.070  -7.777 -10.106  1.00  0.00     0.185 C 
ATOM     58  NH2 ARG A   5     -19.200  -8.780 -10.626  1.00  0.00    -0.370 N 
ATOM     59  H   UNL     1     -21.766  -7.335  -8.904  1.00  0.00     0.163 HD
ATOM     60  H   UNL     1     -18.483  -8.526 -11.342  1.00  0.00     0.159 HD
ATOM     61  H   UNL     1     -19.130  -9.735 -10.218  1.00  0.00     0.159 HD
BRANCH  57  62
ATOM     62  NH1 ARG A   5     -19.848  -6.531 -10.377  1.00  0.00    -0.270 NA
ATOM     63  H   UNL     1     -19.042  -6.231 -10.970  1.00  0.00     0.191 HD
ENDBRANCH  57  62
ENDBRANCH  55  56
ENDBRANCH  54  55
ENDBRANCH  53  54
ENDBRANCH  37  53
ENDBRANCH  34  37
ENDBRANCH  31  33
ENDBRANCH   3  31
TORSDOF 24
