REMARK SMILES CC(C)C[C@H](NC(=O)[C@H](CCCCN)NC(=O)[C@@H]1CCCN1C(=O)[C@@H](N)CO)C(=O)N[C@@H](CCCNC(=N)N)C(=O)N[C@@H](CC(N)=O)C(=O)O
REMARK SMILES IDX 7 1 8 2 6 3 9 5 15 6 16 7 17 8 18 10 22 11 21 12 19 13 20 14
REMARK SMILES IDX 23 15 24 16 25 17 26 18 27 21 28 22 10 24 11 25 12 26 13 27
REMARK SMILES IDX 14 28 5 31 29 32 31 33 30 34 32 36 40 37 42 38 41 39 43 41
REMARK SMILES IDX 48 42 49 43 50 44 44 46 45 47 46 48 47 49 33 52 34 53 35 54
REMARK SMILES IDX 36 55 37 56 39 57 38 61 4 63 2 64 1 65 3 66
REMARK H PARENT 6 4 15 9 26 19 26 20 28 23 14 29 14 30 31 35 42 40 50 45 46 50
REMARK H PARENT 46 51 36 58 39 59 39 60 38 62
ROOT
ATOM      1  C   LYS A   3     -18.375 -10.536  -4.869  1.00  0.00     0.243 C 
ATOM      2  O   LYS A   3     -18.744 -11.395  -5.716  1.00  0.00    -0.273 OA
ATOM      3  N   LEU A   4     -18.841 -10.575  -3.526  1.00  0.00    -0.343 N 
ATOM      4  H   UNL     1     -18.580  -9.790  -2.885  1.00  0.00     0.164 HD
ENDROOT
BRANCH   1   5
ATOM      5  CA  LYS A   3     -17.440  -9.440  -5.250  1.00  0.00     0.171 C 
BRANCH   5   6
ATOM      6  N   LYS A   3     -16.192 -10.011  -5.731  1.00  0.00    -0.343 N 
ATOM      7  C   PRO A   2     -15.228 -10.542  -4.824  1.00  0.00     0.243 C 
ATOM      8  O   PRO A   2     -15.460 -10.561  -3.584  1.00  0.00    -0.273 OA
ATOM      9  H   UNL     1     -16.007 -10.058  -6.757  1.00  0.00     0.164 HD
BRANCH   7  10
ATOM     10  CA  PRO A   2     -13.929 -11.081  -5.351  1.00  0.00     0.174 C 
ATOM     11  N   PRO A   2     -14.174 -12.120  -6.345  1.00  0.00    -0.329 N 
ATOM     12  CD  PRO A   2     -13.722 -11.741  -7.674  1.00  0.00     0.120 C 
ATOM     13  CB  PRO A   2     -13.115 -10.002  -6.070  1.00  0.00     0.037 C 
ATOM     14  CG  PRO A   2     -13.227 -10.304  -7.563  1.00  0.00     0.024 C 
BRANCH  11  15
ATOM     15  C   SER A   1     -14.773 -13.407  -6.083  1.00  0.00     0.242 C 
ATOM     16  O   SER A   1     -15.075 -14.152  -7.055  1.00  0.00    -0.273 OA
BRANCH  15  17
ATOM     17  CA  SER A   1     -15.058 -13.901  -4.675  1.00  0.00     0.167 C 
BRANCH  17  18
ATOM     18  N   SER A   1     -16.500 -14.005  -4.444  1.00  0.00    -0.318 NA
ATOM     19  H   UNL     1     -16.934 -14.603  -5.186  1.00  0.00     0.119 HD
ATOM     20  H   UNL     1     -16.920 -13.051  -4.525  1.00  0.00     0.119 HD
ENDBRANCH  17  18
BRANCH  17  21
ATOM     21  CB  SER A   1     -14.394 -15.261  -4.424  1.00  0.00     0.184 C 
BRANCH  21  22
ATOM     22  OG  SER A   1     -13.004 -15.145  -4.551  1.00  0.00    -0.394 OA
ATOM     23  H   UNL     1     -12.635 -16.051  -4.382  1.00  0.00     0.210 HD
ENDBRANCH  21  22
ENDBRANCH  17  21
ENDBRANCH  15  17
ENDBRANCH  11  15
ENDBRANCH   7  10
ENDBRANCH   5   6
BRANCH   5  24
ATOM     24  CB  LYS A   3     -18.091  -8.532  -6.298  1.00  0.00     0.035 C 
BRANCH  24  25
ATOM     25  CG  LYS A   3     -17.515  -7.115  -6.261  1.00  0.00     0.004 C 
BRANCH  25  26
ATOM     26  CD  LYS A   3     -18.195  -6.245  -7.323  1.00  0.00     0.015 C 
BRANCH  26  27
ATOM     27  CE  LYS A   3     -17.781  -4.766  -7.230  1.00  0.00     0.077 C 
BRANCH  27  28
ATOM     28  NZ  LYS A   3     -16.379  -4.553  -7.588  1.00  0.00    -0.330 NA
ATOM     29  H   UNL     1     -15.767  -4.971  -6.851  1.00  0.00     0.118 HD
ATOM     30  H   UNL     1     -16.175  -5.035  -8.494  1.00  0.00     0.118 HD
ENDBRANCH  27  28
ENDBRANCH  26  27
ENDBRANCH  25  26
ENDBRANCH  24  25
ENDBRANCH   5  24
ENDBRANCH   1   5
BRANCH   3  31
ATOM     31  CA  LEU A   4     -19.813 -11.542  -3.056  1.00  0.00     0.171 C 
BRANCH  31  32
ATOM     32  C   LEU A   4     -21.167 -11.060  -3.464  1.00  0.00     0.243 C 
ATOM     33  N   ARG A   5     -21.504 -11.141  -4.843  1.00  0.00    -0.343 N 
ATOM     34  O   LEU A   4     -21.970 -10.550  -2.635  1.00  0.00    -0.273 OA
ATOM     35  H   UNL     1     -21.059 -11.899  -5.406  1.00  0.00     0.164 HD
BRANCH  33  36
ATOM     36  CA  ARG A   5     -22.679 -10.497  -5.387  1.00  0.00     0.171 C 
BRANCH  36  37
ATOM     37  C   ARG A   5     -23.897 -11.195  -4.885  1.00  0.00     0.243 C 
ATOM     38  N   ASN A   6     -24.982 -10.402  -4.433  1.00  0.00    -0.341 N 
ATOM     39  O   ARG A   5     -23.965 -12.455  -4.867  1.00  0.00    -0.273 OA
ATOM     40  H   UNL     1     -24.931  -9.364  -4.552  1.00  0.00     0.164 HD
BRANCH  38  41
ATOM     41  CA  ASN A   6     -26.189 -10.994  -3.883  1.00  0.00     0.201 C 
BRANCH  41  42
ATOM     42  C   ASN A   6     -27.052 -11.522  -4.997  1.00  0.00     0.326 C 
ATOM     43  O   ASN A   6     -27.151 -10.892  -6.084  1.00  0.00    -0.250 OA
BRANCH  42  44
ATOM     44  OXT ASN A   6     -27.773 -12.698  -4.811  1.00  0.00    -0.480 OA
ATOM     45  H   UNL     1     -28.370 -13.063  -5.543  1.00  0.00     0.296 HD
ENDBRANCH  42  44
ENDBRANCH  41  42
BRANCH  41  46
ATOM     46  CB  ASN A   6     -26.930  -9.934  -3.062  1.00  0.00     0.136 C 
BRANCH  46  47
ATOM     47  CG  ASN A   6     -28.019 -10.549  -2.252  1.00  0.00     0.220 C 
ATOM     48  ND2 ASN A   6     -27.701 -11.242  -1.053  1.00  0.00    -0.370 N 
ATOM     49  OD1 ASN A   6     -29.213 -10.484  -2.642  1.00  0.00    -0.275 OA
ATOM     50  H   UNL     1     -26.713 -11.314  -0.724  1.00  0.00     0.159 HD
ATOM     51  H   UNL     1     -28.456 -11.688  -0.487  1.00  0.00     0.159 HD
ENDBRANCH  46  47
ENDBRANCH  41  46
ENDBRANCH  38  41
ENDBRANCH  36  37
BRANCH  36  52
ATOM     52  CB  ARG A   5     -22.649 -10.518  -6.916  1.00  0.00     0.037 C 
BRANCH  52  53
ATOM     53  CG  ARG A   5     -21.460  -9.719  -7.459  1.00  0.00     0.024 C 
BRANCH  53  54
ATOM     54  CD  ARG A   5     -21.601  -9.479  -8.963  1.00  0.00     0.116 C 
BRANCH  54  55
ATOM     55  NE  ARG A   5     -21.189  -8.117  -9.281  1.00  0.00    -0.357 N 
ATOM     56  CZ  ARG A   5     -20.074  -7.774 -10.104  1.00  0.00     0.185 C 
ATOM     57  NH2 ARG A   5     -19.200  -8.774 -10.616  1.00  0.00    -0.370 N 
ATOM     58  H   UNL     1     -21.774  -7.342  -8.892  1.00  0.00     0.163 HD
ATOM     59  H   UNL     1     -18.493  -8.517 -11.341  1.00  0.00     0.159 HD
ATOM     60  H   UNL     1     -19.096  -9.710 -10.171  1.00  0.00     0.159 HD
BRANCH  56  61
ATOM     61  NH1 ARG A   5     -19.846  -6.532 -10.391  1.00  0.00    -0.270 NA
ATOM     62  H   UNL     1     -20.455  -5.761 -10.037  1.00  0.00     0.191 HD
ENDBRANCH  56  61
ENDBRANCH  54  55
ENDBRANCH  53  54
ENDBRANCH  52  53
ENDBRANCH  36  52
ENDBRANCH  33  36
ENDBRANCH  31  32
BRANCH  31  63
ATOM     63  CB  LEU A   4     -19.650 -11.691  -1.536  1.00  0.00     0.038 C 
BRANCH  63  64
ATOM     64  CG  LEU A   4     -20.294 -12.956  -0.947  1.00  0.00    -0.015 C 
ATOM     65  CD1 LEU A   4     -19.609 -14.232  -1.463  1.00  0.00     0.007 C 
ATOM     66  CD2 LEU A   4     -20.194 -12.898   0.582  1.00  0.00     0.007 C 
ENDBRANCH  63  64
ENDBRANCH  31  63
ENDBRANCH   3  31
TORSDOF 29
