REMARK SMILES CC(C)C[C@H](NC(=O)[C@@H](NC(=O)CNC(=O)[C@@H](N)CO)C(C)C)C(=O)N[C@@H](CCCNC(=N)N)C(=O)N[C@@H](CC(N)=O)C(=O)O
REMARK SMILES IDX 7 1 8 2 6 3 9 5 10 6 11 7 12 8 13 10 14 11 15 12 16 13 17 15
REMARK SMILES IDX 18 16 19 19 20 20 21 22 22 23 23 24 5 25 24 26 26 27 25 28
REMARK SMILES IDX 27 30 35 31 37 32 36 33 38 35 43 36 44 37 45 38 39 40 40 41
REMARK SMILES IDX 41 42 42 43 28 46 29 47 30 48 31 49 32 50 34 51 33 55 4 57
REMARK SMILES IDX 2 58 1 59 3 60
REMARK H PARENT 6 4 10 9 14 14 18 17 18 18 20 21 26 29 37 34 45 39 41 44 41 45
REMARK H PARENT 31 52 34 53 34 54 33 56
ROOT
ATOM      1  C   VAL A   3     -18.432 -10.463  -4.920  1.00  0.00     0.243 C 
ATOM      2  O   VAL A   3     -18.788 -11.352  -5.741  1.00  0.00    -0.273 OA
ATOM      3  N   LEU A   4     -18.854 -10.531  -3.556  1.00  0.00    -0.343 N 
ATOM      4  H   UNL     1     -18.553  -9.770  -2.905  1.00  0.00     0.164 HD
ENDROOT
BRANCH   1   5
ATOM      5  CA  VAL A   3     -17.374  -9.460  -5.295  1.00  0.00     0.174 C 
BRANCH   5   6
ATOM      6  N   VAL A   3     -16.211 -10.210  -5.700  1.00  0.00    -0.343 N 
ATOM      7  C   GLY A   2     -15.219 -10.612  -4.791  1.00  0.00     0.240 C 
ATOM      8  O   GLY A   2     -15.431 -10.572  -3.549  1.00  0.00    -0.273 OA
ATOM      9  H   UNL     1     -16.171 -10.595  -6.673  1.00  0.00     0.164 HD
BRANCH   7  10
ATOM     10  CA  GLY A   2     -13.940 -11.122  -5.343  1.00  0.00     0.216 C 
BRANCH  10  11
ATOM     11  N   GLY A   2     -12.829 -10.494  -4.661  1.00  0.00    -0.346 N 
ATOM     12  C   SER A   1     -12.593  -9.088  -4.708  1.00  0.00     0.239 C 
ATOM     13  O   SER A   1     -13.363  -8.324  -5.355  1.00  0.00    -0.273 OA
ATOM     14  H   UNL     1     -12.190 -11.102  -4.101  1.00  0.00     0.164 HD
BRANCH  12  15
ATOM     15  CA  SER A   1     -11.431  -8.540  -3.935  1.00  0.00     0.167 C 
BRANCH  15  16
ATOM     16  N   SER A   1     -10.870  -7.374  -4.615  1.00  0.00    -0.318 NA
ATOM     17  H   UNL     1      -9.990  -7.099  -4.120  1.00  0.00     0.119 HD
ATOM     18  H   UNL     1     -10.574  -7.662  -5.576  1.00  0.00     0.119 HD
ENDBRANCH  15  16
BRANCH  15  19
ATOM     19  CB  SER A   1     -11.845  -8.202  -2.488  1.00  0.00     0.184 C 
BRANCH  19  20
ATOM     20  OG  SER A   1     -12.061  -6.823  -2.330  1.00  0.00    -0.394 OA
ATOM     21  H   UNL     1     -11.199  -6.422  -2.044  1.00  0.00     0.210 HD
ENDBRANCH  19  20
ENDBRANCH  15  19
ENDBRANCH  12  15
ENDBRANCH  10  11
ENDBRANCH   7  10
ENDBRANCH   5   6
BRANCH   5  22
ATOM     22  CB  VAL A   3     -17.624  -8.438  -6.431  1.00  0.00     0.015 C 
ATOM     23  CG1 VAL A   3     -17.761  -6.991  -6.017  1.00  0.00     0.010 C 
ATOM     24  CG2 VAL A   3     -18.485  -8.813  -7.600  1.00  0.00     0.010 C 
ENDBRANCH   5  22
ENDBRANCH   1   5
BRANCH   3  25
ATOM     25  CA  LEU A   4     -19.807 -11.518  -3.072  1.00  0.00     0.171 C 
BRANCH  25  26
ATOM     26  C   LEU A   4     -21.171 -11.058  -3.471  1.00  0.00     0.243 C 
ATOM     27  N   ARG A   5     -21.518 -11.146  -4.848  1.00  0.00    -0.343 N 
ATOM     28  O   LEU A   4     -21.971 -10.551  -2.637  1.00  0.00    -0.273 OA
ATOM     29  H   UNL     1     -21.085 -11.915  -5.407  1.00  0.00     0.164 HD
BRANCH  27  30
ATOM     30  CA  ARG A   5     -22.698 -10.506  -5.387  1.00  0.00     0.171 C 
BRANCH  30  31
ATOM     31  C   ARG A   5     -23.906 -11.200  -4.876  1.00  0.00     0.243 C 
ATOM     32  N   ASN A   6     -24.989 -10.406  -4.427  1.00  0.00    -0.341 N 
ATOM     33  O   ARG A   5     -23.974 -12.460  -4.858  1.00  0.00    -0.273 OA
ATOM     34  H   UNL     1     -24.940  -9.368  -4.554  1.00  0.00     0.164 HD
BRANCH  32  35
ATOM     35  CA  ASN A   6     -26.196 -10.996  -3.880  1.00  0.00     0.201 C 
BRANCH  35  36
ATOM     36  C   ASN A   6     -27.057 -11.522  -4.996  1.00  0.00     0.326 C 
ATOM     37  O   ASN A   6     -27.151 -10.892  -6.084  1.00  0.00    -0.250 OA
BRANCH  36  38
ATOM     38  OXT ASN A   6     -27.781 -12.696  -4.812  1.00  0.00    -0.480 OA
ATOM     39  H   UNL     1     -28.377 -13.060  -5.546  1.00  0.00     0.296 HD
ENDBRANCH  36  38
ENDBRANCH  35  36
BRANCH  35  40
ATOM     40  CB  ASN A   6     -26.934  -9.934  -3.061  1.00  0.00     0.136 C 
BRANCH  40  41
ATOM     41  CG  ASN A   6     -28.022 -10.549  -2.250  1.00  0.00     0.220 C 
ATOM     42  ND2 ASN A   6     -27.703 -11.241  -1.052  1.00  0.00    -0.370 N 
ATOM     43  OD1 ASN A   6     -29.216 -10.484  -2.641  1.00  0.00    -0.275 OA
ATOM     44  H   UNL     1     -28.457 -11.689  -0.486  1.00  0.00     0.159 HD
ATOM     45  H   UNL     1     -26.714 -11.314  -0.723  1.00  0.00     0.159 HD
ENDBRANCH  40  41
ENDBRANCH  35  40
ENDBRANCH  32  35
ENDBRANCH  30  31
BRANCH  30  46
ATOM     46  CB  ARG A   5     -22.700 -10.534  -6.918  1.00  0.00     0.037 C 
BRANCH  46  47
ATOM     47  CG  ARG A   5     -21.531  -9.737  -7.463  1.00  0.00     0.024 C 
BRANCH  47  48
ATOM     48  CD  ARG A   5     -21.637  -9.495  -8.973  1.00  0.00     0.116 C 
BRANCH  48  49
ATOM     49  NE  ARG A   5     -21.210  -8.133  -9.298  1.00  0.00    -0.357 N 
ATOM     50  CZ  ARG A   5     -20.103  -7.785 -10.133  1.00  0.00     0.185 C 
ATOM     51  NH2 ARG A   5     -19.244  -8.783 -10.686  1.00  0.00    -0.370 N 
ATOM     52  H   UNL     1     -21.781  -7.351  -8.903  1.00  0.00     0.163 HD
ATOM     53  H   UNL     1     -19.233  -9.773 -10.367  1.00  0.00     0.159 HD
ATOM     54  H   UNL     1     -18.505  -8.510 -11.372  1.00  0.00     0.159 HD
BRANCH  50  55
ATOM     55  NH1 ARG A   5     -19.863  -6.535 -10.370  1.00  0.00    -0.270 NA
ATOM     56  H   UNL     1     -19.061  -6.229 -10.964  1.00  0.00     0.191 HD
ENDBRANCH  50  55
ENDBRANCH  48  49
ENDBRANCH  47  48
ENDBRANCH  46  47
ENDBRANCH  30  46
ENDBRANCH  27  30
ENDBRANCH  25  26
BRANCH  25  57
ATOM     57  CB  LEU A   4     -19.639 -11.678  -1.549  1.00  0.00     0.038 C 
BRANCH  57  58
ATOM     58  CG  LEU A   4     -20.289 -12.943  -0.958  1.00  0.00    -0.015 C 
ATOM     59  CD1 LEU A   4     -19.609 -14.223  -1.471  1.00  0.00     0.007 C 
ATOM     60  CD2 LEU A   4     -20.191 -12.888   0.572  1.00  0.00     0.007 C 
ENDBRANCH  57  58
ENDBRANCH  25  57
ENDBRANCH   3  25
TORSDOF 25
