REMARK SMILES CC(C)C[C@H](NC(=O)[C@H](Cc1ccccc1)NC(=O)CN)C(=O)N[C@@H](CCCNC(=N)N)C(=O)N[C@@H](CCCNC(=N)N)C(=O)N[C@@H](CC(N)=O)C(=O)O
REMARK SMILES IDX 25 1 24 2 22 3 23 4 5 6 6 7 7 8 8 9 9 11 17 12 18 13 19 14
REMARK SMILES IDX 20 16 21 17 10 20 11 21 12 22 16 23 13 24 15 25 14 26 4 27
REMARK SMILES IDX 2 28 1 29 3 30 33 31 35 32 34 33 36 35 44 36 46 37 45 38
REMARK SMILES IDX 47 40 52 41 53 42 54 43 48 45 49 46 50 47 51 48 37 51 38 52
REMARK SMILES IDX 39 53 40 54 41 55 43 56 42 60 26 62 27 63 28 64 29 65 30 66
REMARK SMILES IDX 32 67 31 71
REMARK H PARENT 24 5 6 10 17 15 21 18 21 19 35 34 46 39 54 44 50 49 50 50
REMARK H PARENT 40 57 43 58 43 59 42 61 29 68 32 69 32 70 31 72
ROOT
ATOM      1  CA  ARG A   4     -19.822 -11.544  -3.048  1.00  0.00     0.171 C 
ENDROOT
BRANCH   1   2
ATOM      2  N   ARG A   4     -18.847 -10.583  -3.519  1.00  0.00    -0.343 N 
ATOM      3  C   LEU A   3     -18.384 -10.546  -4.865  1.00  0.00     0.243 C 
ATOM      4  O   LEU A   3     -18.750 -11.406  -5.711  1.00  0.00    -0.273 OA
ATOM      5  H   UNL     1     -18.589  -9.797  -2.879  1.00  0.00     0.164 HD
BRANCH   3   6
ATOM      6  CA  LEU A   3     -17.452  -9.454  -5.243  1.00  0.00     0.171 C 
BRANCH   6   7
ATOM      7  N   LEU A   3     -16.213 -10.021  -5.731  1.00  0.00    -0.343 N 
ATOM      8  C   PHE A   2     -15.250 -10.548  -4.826  1.00  0.00     0.243 C 
ATOM      9  O   PHE A   2     -15.472 -10.578  -3.584  1.00  0.00    -0.273 OA
ATOM     10  H   UNL     1     -16.037 -10.072  -6.760  1.00  0.00     0.164 HD
BRANCH   8  11
ATOM     11  CA  PHE A   2     -13.971 -11.062  -5.383  1.00  0.00     0.175 C 
BRANCH  11  12
ATOM     12  N   PHE A   2     -12.850 -10.484  -4.658  1.00  0.00    -0.343 N 
ATOM     13  C   GLY A   1     -12.595  -9.082  -4.702  1.00  0.00     0.234 C 
ATOM     14  O   GLY A   1     -13.354  -8.312  -5.355  1.00  0.00    -0.274 OA
ATOM     15  H   UNL     1     -12.213 -11.101  -4.104  1.00  0.00     0.164 HD
BRANCH  13  16
ATOM     16  CA  GLY A   1     -11.454  -8.528  -3.913  1.00  0.00     0.178 C 
BRANCH  16  17
ATOM     17  N   GLY A   1     -10.883  -7.370  -4.587  1.00  0.00    -0.322 NA
ATOM     18  H   UNL     1     -10.143  -6.972  -3.964  1.00  0.00     0.119 HD
ATOM     19  H   UNL     1     -10.397  -7.703  -5.452  1.00  0.00     0.119 HD
ENDBRANCH  16  17
ENDBRANCH  13  16
ENDBRANCH  11  12
BRANCH  11  20
ATOM     20  CB  PHE A   2     -13.961 -12.597  -5.325  1.00  0.00     0.070 C 
BRANCH  20  21
ATOM     21  CG  PHE A   2     -12.881 -13.200  -6.184  1.00  0.00    -0.045 A 
ATOM     22  CD1 PHE A   2     -12.722 -12.808  -7.526  1.00  0.00     0.004 A 
ATOM     23  CD2 PHE A   2     -12.090 -14.245  -5.683  1.00  0.00     0.004 A 
ATOM     24  CE1 PHE A   2     -11.747 -13.400  -8.324  1.00  0.00     0.000 A 
ATOM     25  CE2 PHE A   2     -11.132 -14.854  -6.496  1.00  0.00     0.000 A 
ATOM     26  CZ  PHE A   2     -10.954 -14.425  -7.812  1.00  0.00     0.000 A 
ENDBRANCH  20  21
ENDBRANCH  11  20
ENDBRANCH   8  11
ENDBRANCH   6   7
BRANCH   6  27
ATOM     27  CB  LEU A   3     -18.098  -8.525  -6.277  1.00  0.00     0.038 C 
BRANCH  27  28
ATOM     28  CG  LEU A   3     -17.543  -7.090  -6.223  1.00  0.00    -0.015 C 
ATOM     29  CD1 LEU A   3     -18.189  -6.262  -7.337  1.00  0.00     0.007 C 
ATOM     30  CD2 LEU A   3     -17.814  -6.422  -4.860  1.00  0.00     0.007 C 
ENDBRANCH  27  28
ENDBRANCH   6  27
ENDBRANCH   3   6
ENDBRANCH   1   2
BRANCH   1  31
ATOM     31  C   ARG A   4     -21.172 -11.059  -3.463  1.00  0.00     0.243 C 
ATOM     32  N   ARG A   5     -21.505 -11.140  -4.843  1.00  0.00    -0.343 N 
ATOM     33  O   ARG A   4     -21.976 -10.547  -2.637  1.00  0.00    -0.273 OA
ATOM     34  H   UNL     1     -21.063 -11.903  -5.403  1.00  0.00     0.164 HD
BRANCH  32  35
ATOM     35  CA  ARG A   5     -22.679 -10.497  -5.388  1.00  0.00     0.171 C 
BRANCH  35  36
ATOM     36  C   ARG A   5     -23.898 -11.195  -4.886  1.00  0.00     0.243 C 
ATOM     37  N   ASN A   6     -24.982 -10.402  -4.433  1.00  0.00    -0.341 N 
ATOM     38  O   ARG A   5     -23.966 -12.455  -4.868  1.00  0.00    -0.273 OA
ATOM     39  H   UNL     1     -24.931  -9.364  -4.552  1.00  0.00     0.164 HD
BRANCH  37  40
ATOM     40  CA  ASN A   6     -26.189 -10.994  -3.883  1.00  0.00     0.201 C 
BRANCH  40  41
ATOM     41  C   ASN A   6     -27.053 -11.522  -4.997  1.00  0.00     0.326 C 
ATOM     42  O   ASN A   6     -27.151 -10.892  -6.084  1.00  0.00    -0.250 OA
BRANCH  41  43
ATOM     43  OXT ASN A   6     -27.773 -12.698  -4.811  1.00  0.00    -0.480 OA
ATOM     44  H   UNL     1     -28.370 -13.063  -5.543  1.00  0.00     0.296 HD
ENDBRANCH  41  43
ENDBRANCH  40  41
BRANCH  40  45
ATOM     45  CB  ASN A   6     -26.930  -9.934  -3.062  1.00  0.00     0.136 C 
BRANCH  45  46
ATOM     46  CG  ASN A   6     -28.019 -10.549  -2.252  1.00  0.00     0.220 C 
ATOM     47  ND2 ASN A   6     -27.701 -11.241  -1.053  1.00  0.00    -0.370 N 
ATOM     48  OD1 ASN A   6     -29.213 -10.484  -2.643  1.00  0.00    -0.275 OA
ATOM     49  H   UNL     1     -26.713 -11.314  -0.724  1.00  0.00     0.159 HD
ATOM     50  H   UNL     1     -28.456 -11.688  -0.487  1.00  0.00     0.159 HD
ENDBRANCH  45  46
ENDBRANCH  40  45
ENDBRANCH  37  40
ENDBRANCH  35  36
BRANCH  35  51
ATOM     51  CB  ARG A   5     -22.649 -10.519  -6.916  1.00  0.00     0.037 C 
BRANCH  51  52
ATOM     52  CG  ARG A   5     -21.461  -9.719  -7.459  1.00  0.00     0.024 C 
BRANCH  52  53
ATOM     53  CD  ARG A   5     -21.601  -9.480  -8.963  1.00  0.00     0.116 C 
BRANCH  53  54
ATOM     54  NE  ARG A   5     -21.189  -8.117  -9.282  1.00  0.00    -0.357 N 
ATOM     55  CZ  ARG A   5     -20.075  -7.775 -10.105  1.00  0.00     0.185 C 
ATOM     56  NH2 ARG A   5     -19.200  -8.774 -10.616  1.00  0.00    -0.370 N 
ATOM     57  H   UNL     1     -21.774  -7.342  -8.893  1.00  0.00     0.163 HD
ATOM     58  H   UNL     1     -18.494  -8.517 -11.342  1.00  0.00     0.159 HD
ATOM     59  H   UNL     1     -19.096  -9.710 -10.171  1.00  0.00     0.159 HD
BRANCH  55  60
ATOM     60  NH1 ARG A   5     -19.847  -6.533 -10.392  1.00  0.00    -0.270 NA
ATOM     61  H   UNL     1     -20.457  -5.762 -10.039  1.00  0.00     0.191 HD
ENDBRANCH  55  60
ENDBRANCH  53  54
ENDBRANCH  52  53
ENDBRANCH  51  52
ENDBRANCH  35  51
ENDBRANCH  32  35
ENDBRANCH   1  31
BRANCH   1  62
ATOM     62  CB  ARG A   4     -19.672 -11.689  -1.523  1.00  0.00     0.037 C 
BRANCH  62  63
ATOM     63  CG  ARG A   4     -20.300 -12.968  -0.961  1.00  0.00     0.024 C 
BRANCH  63  64
ATOM     64  CD  ARG A   4     -19.616 -14.254  -1.455  1.00  0.00     0.116 C 
BRANCH  64  65
ATOM     65  NE  ARG A   4     -18.159 -14.189  -1.329  1.00  0.00    -0.357 N 
ATOM     66  CZ  ARG A   4     -17.474 -14.255  -0.070  1.00  0.00     0.185 C 
ATOM     67  NH2 ARG A   4     -16.050 -14.124  -0.033  1.00  0.00    -0.370 N 
ATOM     68  H   UNL     1     -17.592 -14.122  -2.204  1.00  0.00     0.163 HD
ATOM     69  H   UNL     1     -15.530 -14.172   0.871  1.00  0.00     0.159 HD
ATOM     70  H   UNL     1     -15.511 -13.971  -0.914  1.00  0.00     0.159 HD
BRANCH  66  71
ATOM     71  NH1 ARG A   4     -18.137 -14.439   1.028  1.00  0.00    -0.270 NA
ATOM     72  H   UNL     1     -17.660 -14.493   1.956  1.00  0.00     0.191 HD
ENDBRANCH  66  71
ENDBRANCH  64  65
ENDBRANCH  63  64
ENDBRANCH  62  63
ENDBRANCH   1  62
TORSDOF 29
