REMARK SMILES N=C(N)NCCC[C@H](NC(=O)[C@H](Cc1c[nH]cn1)NC(=O)[C@@H]1CCCN1C(=O)[C@H](Cc1ccccc1)NC(=O)[C@@H](N)CO)C(=O)N[C@@H](CC(N)=O)C(=O)O
REMARK SMILES IDX 20 1 21 2 19 3 22 5 26 6 25 7 23 8 24 9 27 10 28 11 29 12
REMARK SMILES IDX 37 13 38 14 39 15 40 17 41 18 42 21 43 22 30 24 31 25 32 26
REMARK SMILES IDX 36 27 33 28 35 29 34 30 12 31 10 32 9 33 11 34 8 36 44 37
REMARK SMILES IDX 46 38 45 39 47 41 52 42 53 43 54 44 48 46 49 47 50 48 51 49
REMARK SMILES IDX 7 52 6 53 5 54 4 55 2 56 3 57 1 61 13 63 14 64 18 65 15 66
REMARK SMILES IDX 17 67 16 68
REMARK H PARENT 19 4 37 16 41 19 41 20 43 23 9 35 46 40 54 45 50 50 50 51 4 58
REMARK H PARENT 3 59 3 60 1 62 16 69
ROOT
ATOM      1  C   PRO A   3     -18.376 -10.539  -4.884  1.00  0.00     0.243 C 
ATOM      2  O   PRO A   3     -18.756 -11.405  -5.716  1.00  0.00    -0.273 OA
ATOM      3  N   HIS A   4     -18.823 -10.581  -3.528  1.00  0.00    -0.342 N 
ATOM      4  H   UNL     1     -18.515  -9.822  -2.879  1.00  0.00     0.164 HD
ENDROOT
BRANCH   1   5
ATOM      5  CA  PRO A   3     -17.403  -9.480  -5.309  1.00  0.00     0.174 C 
ATOM      6  N   PRO A   3     -17.839  -8.173  -4.841  1.00  0.00    -0.329 N 
ATOM      7  CD  PRO A   3     -16.921  -7.584  -3.880  1.00  0.00     0.120 C 
ATOM      8  CB  PRO A   3     -16.019  -9.699  -4.695  1.00  0.00     0.037 C 
ATOM      9  CG  PRO A   3     -15.873  -8.652  -3.593  1.00  0.00     0.024 C 
BRANCH   6  10
ATOM     10  C   PHE A   2     -18.828  -7.403  -5.539  1.00  0.00     0.246 C 
ATOM     11  O   PHE A   2     -18.664  -7.167  -6.767  1.00  0.00    -0.272 OA
BRANCH  10  12
ATOM     12  CA  PHE A   2     -20.118  -7.011  -4.851  1.00  0.00     0.176 C 
BRANCH  12  13
ATOM     13  N   PHE A   2     -19.830  -6.481  -3.517  1.00  0.00    -0.343 N 
ATOM     14  C   SER A   1     -20.505  -6.938  -2.337  1.00  0.00     0.239 C 
ATOM     15  O   SER A   1     -21.490  -7.720  -2.432  1.00  0.00    -0.273 OA
ATOM     16  H   UNL     1     -19.168  -5.675  -3.439  1.00  0.00     0.164 HD
BRANCH  14  17
ATOM     17  CA  SER A   1     -20.065  -6.451  -0.977  1.00  0.00     0.167 C 
BRANCH  17  18
ATOM     18  N   SER A   1     -21.092  -5.604  -0.366  1.00  0.00    -0.318 NA
ATOM     19  H   UNL     1     -21.211  -4.750  -0.958  1.00  0.00     0.119 HD
ATOM     20  H   UNL     1     -22.010  -6.105  -0.366  1.00  0.00     0.119 HD
ENDBRANCH  17  18
BRANCH  17  21
ATOM     21  CB  SER A   1     -19.699  -7.622  -0.050  1.00  0.00     0.184 C 
BRANCH  21  22
ATOM     22  OG  SER A   1     -20.812  -8.433   0.221  1.00  0.00    -0.394 OA
ATOM     23  H   UNL     1     -21.272  -8.038   1.007  1.00  0.00     0.210 HD
ENDBRANCH  21  22
ENDBRANCH  17  21
ENDBRANCH  14  17
ENDBRANCH  12  13
BRANCH  12  24
ATOM     24  CB  PHE A   2     -20.923  -5.970  -5.658  1.00  0.00     0.070 C 
BRANCH  24  25
ATOM     25  CG  PHE A   2     -22.279  -5.733  -5.043  1.00  0.00    -0.045 A 
ATOM     26  CD1 PHE A   2     -23.376  -6.528  -5.417  1.00  0.00     0.004 A 
ATOM     27  CD2 PHE A   2     -22.446  -4.759  -4.044  1.00  0.00     0.004 A 
ATOM     28  CE1 PHE A   2     -24.619  -6.347  -4.803  1.00  0.00     0.000 A 
ATOM     29  CE2 PHE A   2     -23.689  -4.586  -3.428  1.00  0.00     0.000 A 
ATOM     30  CZ  PHE A   2     -24.775  -5.380  -3.807  1.00  0.00     0.000 A 
ENDBRANCH  24  25
ENDBRANCH  12  24
ENDBRANCH  10  12
ENDBRANCH   6  10
ENDBRANCH   1   5
BRANCH   3  31
ATOM     31  CA  HIS A   4     -19.806 -11.542  -3.046  1.00  0.00     0.177 C 
BRANCH  31  32
ATOM     32  C   HIS A   4     -21.161 -11.059  -3.461  1.00  0.00     0.243 C 
ATOM     33  N   ARG A   5     -21.499 -11.142  -4.840  1.00  0.00    -0.343 N 
ATOM     34  O   HIS A   4     -21.968 -10.555  -2.632  1.00  0.00    -0.273 OA
ATOM     35  H   UNL     1     -21.063 -11.909  -5.398  1.00  0.00     0.164 HD
BRANCH  33  36
ATOM     36  CA  ARG A   5     -22.675 -10.498  -5.384  1.00  0.00     0.171 C 
BRANCH  36  37
ATOM     37  C   ARG A   5     -23.894 -11.195  -4.884  1.00  0.00     0.243 C 
ATOM     38  N   ASN A   6     -24.979 -10.403  -4.431  1.00  0.00    -0.341 N 
ATOM     39  O   ARG A   5     -23.964 -12.455  -4.868  1.00  0.00    -0.273 OA
ATOM     40  H   UNL     1     -24.922  -9.364  -4.540  1.00  0.00     0.164 HD
BRANCH  38  41
ATOM     41  CA  ASN A   6     -26.188 -10.994  -3.883  1.00  0.00     0.201 C 
BRANCH  41  42
ATOM     42  C   ASN A   6     -27.051 -11.522  -4.997  1.00  0.00     0.326 C 
ATOM     43  O   ASN A   6     -27.150 -10.891  -6.084  1.00  0.00    -0.250 OA
BRANCH  42  44
ATOM     44  OXT ASN A   6     -27.771 -12.698  -4.812  1.00  0.00    -0.480 OA
ATOM     45  H   UNL     1     -28.367 -13.063  -5.544  1.00  0.00     0.296 HD
ENDBRANCH  42  44
ENDBRANCH  41  42
BRANCH  41  46
ATOM     46  CB  ASN A   6     -26.929  -9.933  -3.063  1.00  0.00     0.136 C 
BRANCH  46  47
ATOM     47  CG  ASN A   6     -28.018 -10.548  -2.252  1.00  0.00     0.220 C 
ATOM     48  ND2 ASN A   6     -27.700 -11.241  -1.054  1.00  0.00    -0.370 N 
ATOM     49  OD1 ASN A   6     -29.212 -10.483  -2.643  1.00  0.00    -0.275 OA
ATOM     50  H   UNL     1     -26.712 -11.313  -0.725  1.00  0.00     0.159 HD
ATOM     51  H   UNL     1     -28.455 -11.688  -0.488  1.00  0.00     0.159 HD
ENDBRANCH  46  47
ENDBRANCH  41  46
ENDBRANCH  38  41
ENDBRANCH  36  37
BRANCH  36  52
ATOM     52  CB  ARG A   5     -22.646 -10.514  -6.913  1.00  0.00     0.037 C 
BRANCH  52  53
ATOM     53  CG  ARG A   5     -21.454  -9.723  -7.460  1.00  0.00     0.024 C 
BRANCH  53  54
ATOM     54  CD  ARG A   5     -21.602  -9.480  -8.963  1.00  0.00     0.116 C 
BRANCH  54  55
ATOM     55  NE  ARG A   5     -21.188  -8.117  -9.284  1.00  0.00    -0.357 N 
ATOM     56  CZ  ARG A   5     -20.071  -7.777 -10.102  1.00  0.00     0.185 C 
ATOM     57  NH2 ARG A   5     -19.199  -8.779 -10.618  1.00  0.00    -0.370 N 
ATOM     58  H   UNL     1     -21.775  -7.338  -8.907  1.00  0.00     0.163 HD
ATOM     59  H   UNL     1     -19.100  -9.717 -10.174  1.00  0.00     0.159 HD
ATOM     60  H   UNL     1     -18.500  -8.534 -11.354  1.00  0.00     0.159 HD
BRANCH  56  61
ATOM     61  NH1 ARG A   5     -19.851  -6.531 -10.377  1.00  0.00    -0.270 NA
ATOM     62  H   UNL     1     -19.046  -6.231 -10.970  1.00  0.00     0.191 HD
ENDBRANCH  56  61
ENDBRANCH  54  55
ENDBRANCH  53  54
ENDBRANCH  52  53
ENDBRANCH  36  52
ENDBRANCH  33  36
ENDBRANCH  31  32
BRANCH  31  63
ATOM     63  CB  HIS A   4     -19.657 -11.697  -1.522  1.00  0.00     0.093 C 
BRANCH  63  64
ATOM     64  CG  HIS A   4     -20.329 -12.929  -0.997  1.00  0.00     0.061 A 
ATOM     65  ND1 HIS A   4     -19.804 -14.168  -1.080  1.00  0.00    -0.242 NA
ATOM     66  CD2 HIS A   4     -21.586 -12.990  -0.439  1.00  0.00     0.107 A 
ATOM     67  CE1 HIS A   4     -20.759 -14.960  -0.549  1.00  0.00     0.196 A 
ATOM     68  NE2 HIS A   4     -21.848 -14.274  -0.154  1.00  0.00    -0.351 N 
ATOM     69  H   UNL     1     -22.717 -14.660   0.276  1.00  0.00     0.167 HD
ENDBRANCH  63  64
ENDBRANCH  31  63
ENDBRANCH   3  31
TORSDOF 26
