REMARK SMILES CC(C)C[C@H](NC(=O)[C@H](Cc1ccccc1)NC(=O)[C@@H](N)CO)C(=O)N[C@@H](CCCNC(=N)N)C(=O)NCC(=O)N[C@@H](CC(N)=O)C(=O)O
REMARK SMILES IDX 24 1 25 2 26 3 5 5 6 6 7 7 8 8 9 10 17 11 18 12 19 13 20 15
REMARK SMILES IDX 21 16 22 19 23 20 10 22 11 23 12 24 16 25 13 26 15 27 14 28
REMARK SMILES IDX 4 29 2 30 1 31 3 32 27 33 35 34 37 35 36 36 38 38 39 39
REMARK SMILES IDX 41 40 40 41 42 43 47 44 48 45 49 46 43 48 44 49 45 50 46 51
REMARK SMILES IDX 28 54 29 55 30 56 31 57 32 58 34 59 33 63
REMARK H PARENT 26 4 6 9 17 14 21 17 21 18 23 21 37 37 41 42 49 47 45 52 45 53
REMARK H PARENT 31 60 34 61 34 62 33 64
ROOT
ATOM      1  C   LEU A   3     -18.384 -10.545  -4.868  1.00  0.00     0.243 C 
ATOM      2  O   LEU A   3     -18.747 -11.403  -5.718  1.00  0.00    -0.273 OA
ATOM      3  N   ARG A   4     -18.849 -10.586  -3.524  1.00  0.00    -0.343 N 
ATOM      4  H   UNL     1     -18.590  -9.803  -2.880  1.00  0.00     0.164 HD
ENDROOT
BRANCH   1   5
ATOM      5  CA  LEU A   3     -17.453  -9.453  -5.244  1.00  0.00     0.171 C 
BRANCH   5   6
ATOM      6  N   LEU A   3     -16.214 -10.018  -5.730  1.00  0.00    -0.343 N 
ATOM      7  C   PHE A   2     -15.251 -10.547  -4.827  1.00  0.00     0.243 C 
ATOM      8  O   PHE A   2     -15.473 -10.577  -3.584  1.00  0.00    -0.273 OA
ATOM      9  H   UNL     1     -16.035 -10.067  -6.760  1.00  0.00     0.164 HD
BRANCH   7  10
ATOM     10  CA  PHE A   2     -13.974 -11.062  -5.384  1.00  0.00     0.175 C 
BRANCH  10  11
ATOM     11  N   PHE A   2     -12.855 -10.485  -4.660  1.00  0.00    -0.343 N 
ATOM     12  C   SER A   1     -12.596  -9.083  -4.703  1.00  0.00     0.239 C 
ATOM     13  O   SER A   1     -13.355  -8.308  -5.350  1.00  0.00    -0.273 OA
ATOM     14  H   UNL     1     -12.220 -11.103  -4.104  1.00  0.00     0.164 HD
BRANCH  12  15
ATOM     15  CA  SER A   1     -11.429  -8.545  -3.931  1.00  0.00     0.167 C 
BRANCH  15  16
ATOM     16  N   SER A   1     -10.863  -7.381  -4.611  1.00  0.00    -0.318 NA
ATOM     17  H   UNL     1     -10.568  -7.671  -5.572  1.00  0.00     0.119 HD
ATOM     18  H   UNL     1      -9.982  -7.110  -4.115  1.00  0.00     0.119 HD
ENDBRANCH  15  16
BRANCH  15  19
ATOM     19  CB  SER A   1     -11.841  -8.203  -2.485  1.00  0.00     0.184 C 
BRANCH  19  20
ATOM     20  OG  SER A   1     -12.062  -6.825  -2.331  1.00  0.00    -0.394 OA
ATOM     21  H   UNL     1     -11.201  -6.420  -2.047  1.00  0.00     0.210 HD
ENDBRANCH  19  20
ENDBRANCH  15  19
ENDBRANCH  12  15
ENDBRANCH  10  11
BRANCH  10  22
ATOM     22  CB  PHE A   2     -13.963 -12.597  -5.327  1.00  0.00     0.070 C 
BRANCH  22  23
ATOM     23  CG  PHE A   2     -12.882 -13.200  -6.184  1.00  0.00    -0.045 A 
ATOM     24  CD1 PHE A   2     -12.722 -12.808  -7.527  1.00  0.00     0.004 A 
ATOM     25  CD2 PHE A   2     -12.090 -14.244  -5.683  1.00  0.00     0.004 A 
ATOM     26  CE1 PHE A   2     -11.747 -13.400  -8.324  1.00  0.00     0.000 A 
ATOM     27  CE2 PHE A   2     -11.132 -14.854  -6.496  1.00  0.00     0.000 A 
ATOM     28  CZ  PHE A   2     -10.954 -14.425  -7.812  1.00  0.00     0.000 A 
ENDBRANCH  22  23
ENDBRANCH  10  22
ENDBRANCH   7  10
ENDBRANCH   5   6
BRANCH   5  29
ATOM     29  CB  LEU A   3     -18.099  -8.526  -6.281  1.00  0.00     0.038 C 
BRANCH  29  30
ATOM     30  CG  LEU A   3     -17.546  -7.090  -6.226  1.00  0.00    -0.015 C 
ATOM     31  CD1 LEU A   3     -18.196  -6.259  -7.337  1.00  0.00     0.007 C 
ATOM     32  CD2 LEU A   3     -17.812  -6.424  -4.861  1.00  0.00     0.007 C 
ENDBRANCH  29  30
ENDBRANCH   5  29
ENDBRANCH   1   5
BRANCH   3  33
ATOM     33  CA  ARG A   4     -19.828 -11.544  -3.059  1.00  0.00     0.171 C 
BRANCH  33  34
ATOM     34  C   ARG A   4     -21.178 -11.051  -3.476  1.00  0.00     0.243 C 
ATOM     35  N   GLY A   5     -21.508 -11.113  -4.862  1.00  0.00    -0.345 N 
ATOM     36  O   ARG A   4     -21.982 -10.547  -2.645  1.00  0.00    -0.273 OA
ATOM     37  H   UNL     1     -21.039 -11.828  -5.458  1.00  0.00     0.164 HD
BRANCH  35  38
ATOM     38  CA  GLY A   5     -22.690 -10.497  -5.417  1.00  0.00     0.216 C 
BRANCH  38  39
ATOM     39  C   GLY A   5     -23.899 -11.188  -4.895  1.00  0.00     0.240 C 
ATOM     40  N   ASN A   6     -24.979 -10.397  -4.430  1.00  0.00    -0.341 N 
ATOM     41  O   GLY A   5     -23.965 -12.449  -4.872  1.00  0.00    -0.273 OA
ATOM     42  H   UNL     1     -24.919  -9.357  -4.531  1.00  0.00     0.164 HD
BRANCH  40  43
ATOM     43  CA  ASN A   6     -26.187 -10.991  -3.882  1.00  0.00     0.201 C 
BRANCH  43  44
ATOM     44  C   ASN A   6     -27.050 -11.521  -4.996  1.00  0.00     0.326 C 
ATOM     45  O   ASN A   6     -27.151 -10.891  -6.083  1.00  0.00    -0.250 OA
BRANCH  44  46
ATOM     46  OXT ASN A   6     -27.768 -12.699  -4.809  1.00  0.00    -0.480 OA
ATOM     47  H   UNL     1     -28.364 -13.065  -5.541  1.00  0.00     0.296 HD
ENDBRANCH  44  46
ENDBRANCH  43  44
BRANCH  43  48
ATOM     48  CB  ASN A   6     -26.930  -9.933  -3.061  1.00  0.00     0.136 C 
BRANCH  48  49
ATOM     49  CG  ASN A   6     -28.019 -10.549  -2.252  1.00  0.00     0.220 C 
ATOM     50  ND2 ASN A   6     -27.701 -11.242  -1.054  1.00  0.00    -0.370 N 
ATOM     51  OD1 ASN A   6     -29.213 -10.484  -2.643  1.00  0.00    -0.275 OA
ATOM     52  H   UNL     1     -28.456 -11.689  -0.488  1.00  0.00     0.159 HD
ATOM     53  H   UNL     1     -26.713 -11.314  -0.724  1.00  0.00     0.159 HD
ENDBRANCH  48  49
ENDBRANCH  43  48
ENDBRANCH  40  43
ENDBRANCH  38  39
ENDBRANCH  35  38
ENDBRANCH  33  34
BRANCH  33  54
ATOM     54  CB  ARG A   4     -19.674 -11.702  -1.535  1.00  0.00     0.037 C 
BRANCH  54  55
ATOM     55  CG  ARG A   4     -20.324 -12.968  -0.975  1.00  0.00     0.024 C 
BRANCH  55  56
ATOM     56  CD  ARG A   4     -19.606 -14.244  -1.441  1.00  0.00     0.116 C 
BRANCH  56  57
ATOM     57  NE  ARG A   4     -20.074 -15.408  -0.685  1.00  0.00    -0.357 N 
ATOM     58  CZ  ARG A   4     -19.569 -16.739  -0.891  1.00  0.00     0.185 C 
ATOM     59  NH2 ARG A   4     -20.085 -17.813  -0.104  1.00  0.00    -0.370 N 
ATOM     60  H   UNL     1     -20.819 -15.281   0.038  1.00  0.00     0.163 HD
ATOM     61  H   UNL     1     -20.821 -17.640   0.615  1.00  0.00     0.159 HD
ATOM     62  H   UNL     1     -19.731 -18.787  -0.239  1.00  0.00     0.159 HD
BRANCH  58  63
ATOM     63  NH1 ARG A   4     -18.654 -16.990  -1.776  1.00  0.00    -0.270 NA
ATOM     64  H   UNL     1     -18.228 -16.260  -2.388  1.00  0.00     0.191 HD
ENDBRANCH  58  63
ENDBRANCH  56  57
ENDBRANCH  55  56
ENDBRANCH  54  55
ENDBRANCH  33  54
ENDBRANCH   3  33
TORSDOF 26
