REMARK SMILES CC(C)C[C@H](NC(=O)[C@H](CCCNC(=N)N)NC(=O)[C@H](CC(C)C)NC(=O)[C@@H](N)CO)C(=O)N[C@@H](CCCNC(=N)N)C(=O)N[C@@H](CC(N)=O)C(=O)O
REMARK SMILES IDX 7 1 8 2 6 3 9 5 17 6 18 7 19 8 20 10 25 11 26 12 27 13 28 15
REMARK SMILES IDX 29 16 30 19 31 20 21 22 22 23 23 24 24 25 10 26 11 27 12 28
REMARK SMILES IDX 13 29 14 30 16 31 15 35 5 37 32 38 34 39 33 40 35 42 43 43
REMARK SMILES IDX 45 44 44 45 46 47 51 48 52 49 53 50 47 52 48 53 49 54 50 55
REMARK SMILES IDX 36 58 37 59 38 60 39 61 40 62 42 63 41 67 4 69 2 70 1 71
REMARK SMILES IDX 3 72
REMARK H PARENT 6 4 17 9 25 14 29 17 29 18 31 21 13 32 16 33 16 34 15 36 34 41
REMARK H PARENT 45 46 53 51 49 56 49 57 39 64 42 65 42 66 41 68
ROOT
ATOM      1  C   ARG A   3     -18.381 -10.534  -4.868  1.00  0.00     0.243 C 
ATOM      2  O   ARG A   3     -18.744 -11.397  -5.713  1.00  0.00    -0.273 OA
ATOM      3  N   LEU A   4     -18.844 -10.575  -3.524  1.00  0.00    -0.343 N 
ATOM      4  H   UNL     1     -18.585  -9.790  -2.883  1.00  0.00     0.164 HD
ENDROOT
BRANCH   1   5
ATOM      5  CA  ARG A   3     -17.452  -9.435  -5.249  1.00  0.00     0.171 C 
BRANCH   5   6
ATOM      6  N   ARG A   3     -16.209 -10.004  -5.735  1.00  0.00    -0.343 N 
ATOM      7  C   LEU A   2     -15.254 -10.554  -4.835  1.00  0.00     0.243 C 
ATOM      8  O   LEU A   2     -15.479 -10.584  -3.593  1.00  0.00    -0.273 OA
ATOM      9  H   UNL     1     -16.010 -10.015  -6.761  1.00  0.00     0.164 HD
BRANCH   7  10
ATOM     10  CA  LEU A   2     -13.966 -11.069  -5.387  1.00  0.00     0.171 C 
BRANCH  10  11
ATOM     11  N   LEU A   2     -12.870 -10.469  -4.644  1.00  0.00    -0.343 N 
ATOM     12  C   SER A   1     -12.605  -9.073  -4.711  1.00  0.00     0.239 C 
ATOM     13  O   SER A   1     -13.362  -8.308  -5.369  1.00  0.00    -0.273 OA
ATOM     14  H   UNL     1     -12.320 -11.046  -3.968  1.00  0.00     0.164 HD
BRANCH  12  15
ATOM     15  CA  SER A   1     -11.440  -8.531  -3.936  1.00  0.00     0.167 C 
BRANCH  15  16
ATOM     16  N   SER A   1     -10.845  -7.373  -4.605  1.00  0.00    -0.318 NA
ATOM     17  H   UNL     1     -11.572  -6.643  -4.787  1.00  0.00     0.119 HD
ATOM     18  H   UNL     1     -10.476  -7.679  -5.535  1.00  0.00     0.119 HD
ENDBRANCH  15  16
BRANCH  15  19
ATOM     19  CB  SER A   1     -11.839  -8.200  -2.486  1.00  0.00     0.184 C 
BRANCH  19  20
ATOM     20  OG  SER A   1     -12.058  -6.825  -2.327  1.00  0.00    -0.394 OA
ATOM     21  H   UNL     1     -12.315  -6.694  -1.377  1.00  0.00     0.210 HD
ENDBRANCH  19  20
ENDBRANCH  15  19
ENDBRANCH  12  15
ENDBRANCH  10  11
BRANCH  10  22
ATOM     22  CB  LEU A   2     -13.929 -12.603  -5.297  1.00  0.00     0.038 C 
BRANCH  22  23
ATOM     23  CG  LEU A   2     -12.876 -13.279  -6.206  1.00  0.00    -0.015 C 
ATOM     24  CD1 LEU A   2     -13.172 -13.091  -7.702  1.00  0.00     0.007 C 
ATOM     25  CD2 LEU A   2     -11.430 -12.885  -5.881  1.00  0.00     0.007 C 
ENDBRANCH  22  23
ENDBRANCH  10  22
ENDBRANCH   7  10
ENDBRANCH   5   6
BRANCH   5  26
ATOM     26  CB  ARG A   3     -18.104  -8.527  -6.294  1.00  0.00     0.037 C 
BRANCH  26  27
ATOM     27  CG  ARG A   3     -17.517  -7.115  -6.261  1.00  0.00     0.024 C 
BRANCH  27  28
ATOM     28  CD  ARG A   3     -18.190  -6.242  -7.320  1.00  0.00     0.116 C 
BRANCH  28  29
ATOM     29  NE  ARG A   3     -17.667  -4.877  -7.268  1.00  0.00    -0.357 N 
ATOM     30  CZ  ARG A   3     -16.362  -4.478  -7.729  1.00  0.00     0.185 C 
ATOM     31  NH2 ARG A   3     -15.918  -3.142  -7.496  1.00  0.00    -0.370 N 
ATOM     32  H   UNL     1     -18.293  -4.137  -6.878  1.00  0.00     0.163 HD
ATOM     33  H   UNL     1     -16.525  -2.461  -6.988  1.00  0.00     0.159 HD
ATOM     34  H   UNL     1     -14.978  -2.829  -7.828  1.00  0.00     0.159 HD
BRANCH  30  35
ATOM     35  NH1 ARG A   3     -15.583  -5.297  -8.367  1.00  0.00    -0.270 NA
ATOM     36  H   UNL     1     -15.833  -6.284  -8.590  1.00  0.00     0.191 HD
ENDBRANCH  30  35
ENDBRANCH  28  29
ENDBRANCH  27  28
ENDBRANCH  26  27
ENDBRANCH   5  26
ENDBRANCH   1   5
BRANCH   3  37
ATOM     37  CA  LEU A   4     -19.815 -11.542  -3.054  1.00  0.00     0.171 C 
BRANCH  37  38
ATOM     38  C   LEU A   4     -21.169 -11.060  -3.464  1.00  0.00     0.243 C 
ATOM     39  N   ARG A   5     -21.504 -11.140  -4.842  1.00  0.00    -0.343 N 
ATOM     40  O   LEU A   4     -21.971 -10.549  -2.634  1.00  0.00    -0.273 OA
ATOM     41  H   UNL     1     -21.059 -11.899  -5.406  1.00  0.00     0.164 HD
BRANCH  39  42
ATOM     42  CA  ARG A   5     -22.679 -10.497  -5.387  1.00  0.00     0.171 C 
BRANCH  42  43
ATOM     43  C   ARG A   5     -23.897 -11.195  -4.886  1.00  0.00     0.243 C 
ATOM     44  N   ASN A   6     -24.982 -10.402  -4.433  1.00  0.00    -0.341 N 
ATOM     45  O   ARG A   5     -23.966 -12.455  -4.868  1.00  0.00    -0.273 OA
ATOM     46  H   UNL     1     -24.931  -9.364  -4.552  1.00  0.00     0.164 HD
BRANCH  44  47
ATOM     47  CA  ASN A   6     -26.189 -10.994  -3.883  1.00  0.00     0.201 C 
BRANCH  47  48
ATOM     48  C   ASN A   6     -27.053 -11.522  -4.997  1.00  0.00     0.326 C 
ATOM     49  O   ASN A   6     -27.151 -10.892  -6.084  1.00  0.00    -0.250 OA
BRANCH  48  50
ATOM     50  OXT ASN A   6     -27.773 -12.698  -4.811  1.00  0.00    -0.480 OA
ATOM     51  H   UNL     1     -28.370 -13.063  -5.543  1.00  0.00     0.296 HD
ENDBRANCH  48  50
ENDBRANCH  47  48
BRANCH  47  52
ATOM     52  CB  ASN A   6     -26.930  -9.934  -3.062  1.00  0.00     0.136 C 
BRANCH  52  53
ATOM     53  CG  ASN A   6     -28.019 -10.549  -2.252  1.00  0.00     0.220 C 
ATOM     54  ND2 ASN A   6     -27.701 -11.241  -1.053  1.00  0.00    -0.370 N 
ATOM     55  OD1 ASN A   6     -29.213 -10.484  -2.643  1.00  0.00    -0.275 OA
ATOM     56  H   UNL     1     -26.713 -11.314  -0.724  1.00  0.00     0.159 HD
ATOM     57  H   UNL     1     -28.456 -11.688  -0.487  1.00  0.00     0.159 HD
ENDBRANCH  52  53
ENDBRANCH  47  52
ENDBRANCH  44  47
ENDBRANCH  42  43
BRANCH  42  58
ATOM     58  CB  ARG A   5     -22.649 -10.518  -6.916  1.00  0.00     0.037 C 
BRANCH  58  59
ATOM     59  CG  ARG A   5     -21.461  -9.717  -7.459  1.00  0.00     0.024 C 
BRANCH  59  60
ATOM     60  CD  ARG A   5     -21.602  -9.477  -8.963  1.00  0.00     0.116 C 
BRANCH  60  61
ATOM     61  NE  ARG A   5     -21.186  -8.116  -9.284  1.00  0.00    -0.357 N 
ATOM     62  CZ  ARG A   5     -20.073  -7.777 -10.107  1.00  0.00     0.185 C 
ATOM     63  NH2 ARG A   5     -19.197  -8.780 -10.616  1.00  0.00    -0.370 N 
ATOM     64  H   UNL     1     -21.765  -7.334  -8.899  1.00  0.00     0.163 HD
ATOM     65  H   UNL     1     -18.498  -8.536 -11.352  1.00  0.00     0.159 HD
ATOM     66  H   UNL     1     -19.092  -9.711 -10.161  1.00  0.00     0.159 HD
BRANCH  62  67
ATOM     67  NH1 ARG A   5     -19.857  -6.531 -10.388  1.00  0.00    -0.270 NA
ATOM     68  H   UNL     1     -19.052  -6.232 -10.983  1.00  0.00     0.191 HD
ENDBRANCH  62  67
ENDBRANCH  60  61
ENDBRANCH  59  60
ENDBRANCH  58  59
ENDBRANCH  42  58
ENDBRANCH  39  42
ENDBRANCH  37  38
BRANCH  37  69
ATOM     69  CB  LEU A   4     -19.652 -11.691  -1.534  1.00  0.00     0.038 C 
BRANCH  69  70
ATOM     70  CG  LEU A   4     -20.296 -12.956  -0.946  1.00  0.00    -0.015 C 
ATOM     71  CD1 LEU A   4     -19.611 -14.232  -1.462  1.00  0.00     0.007 C 
ATOM     72  CD2 LEU A   4     -20.194 -12.898   0.583  1.00  0.00     0.007 C 
ENDBRANCH  69  70
ENDBRANCH  37  69
ENDBRANCH   3  37
TORSDOF 31
