REMARK SMILES CC(C)C[C@H](NC(=O)[C@H](CO)NC(=O)[C@H](Cc1ccccc1)NC(=O)[C@@H](N)CO)C(=O)N[C@@H](CCCNC(=N)N)C(=O)N[C@@H](C)C(=O)O
REMARK SMILES IDX 7 1 8 2 6 3 9 5 12 6 13 7 14 8 15 10 23 11 24 12 25 13 26 15
REMARK SMILES IDX 27 16 28 19 29 20 16 22 17 23 18 24 22 25 19 26 21 27 20 28
REMARK SMILES IDX 10 29 11 30 5 32 30 33 32 34 31 35 33 37 41 38 43 39 42 40
REMARK SMILES IDX 44 42 45 43 46 44 47 45 48 46 34 48 35 49 36 50 37 51 38 52
REMARK SMILES IDX 40 53 39 57 4 59 2 60 1 61 3 62
REMARK H PARENT 6 4 12 9 23 14 27 17 27 18 29 21 11 31 32 36 43 41 48 47 37 54
REMARK H PARENT 40 55 40 56 39 58
ROOT
ATOM      1  C   SER A   3     -18.394 -10.517  -4.874  1.00  0.00     0.245 C 
ATOM      2  O   SER A   3     -18.751 -11.388  -5.714  1.00  0.00    -0.273 OA
ATOM      3  N   LEU A   4     -18.844 -10.566  -3.527  1.00  0.00    -0.342 N 
ATOM      4  H   UNL     1     -18.571  -9.786  -2.883  1.00  0.00     0.164 HD
ENDROOT
BRANCH   1   5
ATOM      5  CA  SER A   3     -17.454  -9.427  -5.261  1.00  0.00     0.197 C 
BRANCH   5   6
ATOM      6  N   SER A   3     -16.218 -10.016  -5.731  1.00  0.00    -0.340 N 
ATOM      7  C   PHE A   2     -15.257 -10.544  -4.825  1.00  0.00     0.243 C 
ATOM      8  O   PHE A   2     -15.480 -10.571  -3.583  1.00  0.00    -0.273 OA
ATOM      9  H   UNL     1     -16.044 -10.081  -6.761  1.00  0.00     0.164 HD
BRANCH   7  10
ATOM     10  CA  PHE A   2     -13.977 -11.060  -5.382  1.00  0.00     0.175 C 
BRANCH  10  11
ATOM     11  N   PHE A   2     -12.858 -10.484  -4.658  1.00  0.00    -0.343 N 
ATOM     12  C   SER A   1     -12.596  -9.083  -4.702  1.00  0.00     0.239 C 
ATOM     13  O   SER A   1     -13.354  -8.308  -5.350  1.00  0.00    -0.273 OA
ATOM     14  H   UNL     1     -12.224 -11.103  -4.102  1.00  0.00     0.164 HD
BRANCH  12  15
ATOM     15  CA  SER A   1     -11.428  -8.546  -3.931  1.00  0.00     0.167 C 
BRANCH  15  16
ATOM     16  N   SER A   1     -10.863  -7.381  -4.610  1.00  0.00    -0.318 NA
ATOM     17  H   UNL     1     -10.541  -7.677  -5.561  1.00  0.00     0.119 HD
ATOM     18  H   UNL     1     -10.000  -7.090  -4.094  1.00  0.00     0.119 HD
ENDBRANCH  15  16
BRANCH  15  19
ATOM     19  CB  SER A   1     -11.839  -8.203  -2.486  1.00  0.00     0.184 C 
BRANCH  19  20
ATOM     20  OG  SER A   1     -12.064  -6.827  -2.332  1.00  0.00    -0.394 OA
ATOM     21  H   UNL     1     -12.954  -6.643  -2.732  1.00  0.00     0.210 HD
ENDBRANCH  19  20
ENDBRANCH  15  19
ENDBRANCH  12  15
ENDBRANCH  10  11
BRANCH  10  22
ATOM     22  CB  PHE A   2     -13.965 -12.596  -5.326  1.00  0.00     0.070 C 
BRANCH  22  23
ATOM     23  CG  PHE A   2     -12.883 -13.199  -6.183  1.00  0.00    -0.045 A 
ATOM     24  CD1 PHE A   2     -12.723 -12.807  -7.526  1.00  0.00     0.004 A 
ATOM     25  CD2 PHE A   2     -12.091 -14.244  -5.682  1.00  0.00     0.004 A 
ATOM     26  CE1 PHE A   2     -11.747 -13.399  -8.324  1.00  0.00     0.000 A 
ATOM     27  CE2 PHE A   2     -11.133 -14.853  -6.495  1.00  0.00     0.000 A 
ATOM     28  CZ  PHE A   2     -10.955 -14.424  -7.811  1.00  0.00     0.000 A 
ENDBRANCH  22  23
ENDBRANCH  10  22
ENDBRANCH   7  10
ENDBRANCH   5   6
BRANCH   5  29
ATOM     29  CB  SER A   3     -18.058  -8.521  -6.333  1.00  0.00     0.191 C 
BRANCH  29  30
ATOM     30  OG  SER A   3     -19.199  -7.867  -5.842  1.00  0.00    -0.394 OA
ATOM     31  H   UNL     1     -18.878  -7.142  -5.245  1.00  0.00     0.210 HD
ENDBRANCH  29  30
ENDBRANCH   5  29
ENDBRANCH   1   5
BRANCH   3  32
ATOM     32  CA  LEU A   4     -19.813 -11.536  -3.056  1.00  0.00     0.171 C 
BRANCH  32  33
ATOM     33  C   LEU A   4     -21.169 -11.058  -3.463  1.00  0.00     0.243 C 
ATOM     34  N   ARG A   5     -21.508 -11.140  -4.841  1.00  0.00    -0.343 N 
ATOM     35  O   LEU A   4     -21.971 -10.549  -2.633  1.00  0.00    -0.273 OA
ATOM     36  H   UNL     1     -21.064 -11.899  -5.404  1.00  0.00     0.164 HD
BRANCH  34  37
ATOM     37  CA  ARG A   5     -22.684 -10.496  -5.385  1.00  0.00     0.171 C 
BRANCH  37  38
ATOM     38  C   ARG A   5     -23.902 -11.194  -4.881  1.00  0.00     0.243 C 
ATOM     39  N   ALA A   6     -24.985 -10.404  -4.412  1.00  0.00    -0.341 N 
ATOM     40  O   ARG A   5     -23.970 -12.454  -4.870  1.00  0.00    -0.273 OA
ATOM     41  H   UNL     1     -24.922  -9.363  -4.494  1.00  0.00     0.164 HD
BRANCH  39  42
ATOM     42  CA  ALA A   6     -26.196 -11.003  -3.874  1.00  0.00     0.189 C 
ATOM     43  CB  ALA A   6     -26.948  -9.970  -3.039  1.00  0.00     0.043 C 
BRANCH  42  44
ATOM     44  C   ALA A   6     -27.062 -11.517  -4.990  1.00  0.00     0.325 C 
ATOM     45  O   ALA A   6     -27.145 -10.889  -6.080  1.00  0.00    -0.250 OA
BRANCH  44  46
ATOM     46  OXT ALA A   6     -27.808 -12.676  -4.802  1.00  0.00    -0.480 OA
ATOM     47  H   UNL     1     -28.408 -13.033  -5.536  1.00  0.00     0.296 HD
ENDBRANCH  44  46
ENDBRANCH  42  44
ENDBRANCH  39  42
ENDBRANCH  37  38
BRANCH  37  48
ATOM     48  CB  ARG A   5     -22.654 -10.517  -6.915  1.00  0.00     0.037 C 
BRANCH  48  49
ATOM     49  CG  ARG A   5     -21.465  -9.719  -7.458  1.00  0.00     0.024 C 
BRANCH  49  50
ATOM     50  CD  ARG A   5     -21.603  -9.479  -8.963  1.00  0.00     0.116 C 
BRANCH  50  51
ATOM     51  NE  ARG A   5     -21.186  -8.118  -9.283  1.00  0.00    -0.357 N 
ATOM     52  CZ  ARG A   5     -20.070  -7.778 -10.102  1.00  0.00     0.185 C 
ATOM     53  NH2 ARG A   5     -19.199  -8.781 -10.618  1.00  0.00    -0.370 N 
ATOM     54  H   UNL     1     -21.768  -7.337  -8.901  1.00  0.00     0.163 HD
ATOM     55  H   UNL     1     -19.098  -9.717 -10.171  1.00  0.00     0.159 HD
ATOM     56  H   UNL     1     -18.500  -8.537 -11.355  1.00  0.00     0.159 HD
BRANCH  52  57
ATOM     57  NH1 ARG A   5     -19.851  -6.532 -10.379  1.00  0.00    -0.270 NA
ATOM     58  H   UNL     1     -19.045  -6.233 -10.973  1.00  0.00     0.191 HD
ENDBRANCH  52  57
ENDBRANCH  50  51
ENDBRANCH  49  50
ENDBRANCH  48  49
ENDBRANCH  37  48
ENDBRANCH  34  37
ENDBRANCH  32  33
BRANCH  32  59
ATOM     59  CB  LEU A   4     -19.650 -11.688  -1.535  1.00  0.00     0.038 C 
BRANCH  59  60
ATOM     60  CG  LEU A   4     -20.294 -12.954  -0.948  1.00  0.00    -0.015 C 
ATOM     61  CD1 LEU A   4     -19.610 -14.230  -1.463  1.00  0.00     0.007 C 
ATOM     62  CD2 LEU A   4     -20.194 -12.897   0.581  1.00  0.00     0.007 C 
ENDBRANCH  59  60
ENDBRANCH  32  59
ENDBRANCH   3  32
TORSDOF 26
