REMARK SMILES CC(C)C[C@H](NC(=O)[C@H](CO)NC(=O)[C@H](Cc1ccccc1)NC(=O)[C@@H](N)Cc1c[nH]cn1)C(=O)N[C@@H](CCCNC(=N)N)C(=O)N[C@@H](CC(N)=O)C(=O)O
REMARK SMILES IDX 7 1 8 2 6 3 9 5 12 6 13 7 14 8 15 10 23 11 24 12 25 13 26 15
REMARK SMILES IDX 27 16 28 19 29 20 33 21 30 22 32 23 31 24 16 26 17 27 18 28
REMARK SMILES IDX 22 29 19 30 21 31 20 32 10 33 11 34 5 36 34 37 36 38 35 39
REMARK SMILES IDX 37 41 45 42 47 43 46 44 48 46 53 47 54 48 55 49 49 51 50 52
REMARK SMILES IDX 51 53 52 54 38 57 39 58 40 59 41 60 42 61 44 62 43 66 4 68
REMARK SMILES IDX 2 69 1 70 3 71
REMARK H PARENT 6 4 12 9 23 14 27 17 27 18 31 25 11 35 36 40 47 45 55 50 51 55
REMARK H PARENT 51 56 41 63 44 64 44 65 43 67
ROOT
ATOM      1  C   SER A   3     -18.393 -10.516  -4.874  1.00  0.00     0.245 C 
ATOM      2  O   SER A   3     -18.750 -11.387  -5.714  1.00  0.00    -0.273 OA
ATOM      3  N   LEU A   4     -18.843 -10.565  -3.526  1.00  0.00    -0.342 N 
ATOM      4  H   UNL     1     -18.569  -9.787  -2.882  1.00  0.00     0.164 HD
ENDROOT
BRANCH   1   5
ATOM      5  CA  SER A   3     -17.452  -9.426  -5.260  1.00  0.00     0.197 C 
BRANCH   5   6
ATOM      6  N   SER A   3     -16.216 -10.014  -5.731  1.00  0.00    -0.340 N 
ATOM      7  C   PHE A   2     -15.257 -10.547  -4.826  1.00  0.00     0.243 C 
ATOM      8  O   PHE A   2     -15.483 -10.581  -3.585  1.00  0.00    -0.273 OA
ATOM      9  H   UNL     1     -16.040 -10.073  -6.760  1.00  0.00     0.164 HD
BRANCH   7  10
ATOM     10  CA  PHE A   2     -13.978 -11.064  -5.382  1.00  0.00     0.175 C 
BRANCH  10  11
ATOM     11  N   PHE A   2     -12.857 -10.487  -4.660  1.00  0.00    -0.343 N 
ATOM     12  C   HIS A   1     -12.601  -9.085  -4.713  1.00  0.00     0.237 C 
ATOM     13  O   HIS A   1     -13.361  -8.320  -5.370  1.00  0.00    -0.273 OA
ATOM     14  H   UNL     1     -12.223 -11.101  -4.100  1.00  0.00     0.164 HD
BRANCH  12  15
ATOM     15  CA  HIS A   1     -11.452  -8.530  -3.924  1.00  0.00     0.147 C 
BRANCH  15  16
ATOM     16  N   HIS A   1     -10.868  -7.358  -4.576  1.00  0.00    -0.320 NA
ATOM     17  H   UNL     1     -11.599  -6.630  -4.743  1.00  0.00     0.119 HD
ATOM     18  H   UNL     1     -10.499  -7.646  -5.512  1.00  0.00     0.119 HD
ENDBRANCH  15  16
BRANCH  15  19
ATOM     19  CB  HIS A   1     -11.873  -8.212  -2.479  1.00  0.00     0.086 C 
BRANCH  19  20
ATOM     20  CG  HIS A   1     -12.933  -7.151  -2.386  1.00  0.00     0.060 A 
ATOM     21  ND1 HIS A   1     -12.675  -5.828  -2.357  1.00  0.00    -0.242 NA
ATOM     22  CD2 HIS A   1     -14.294  -7.363  -2.368  1.00  0.00     0.107 A 
ATOM     23  CE1 HIS A   1     -13.899  -5.260  -2.315  1.00  0.00     0.196 A 
ATOM     24  NE2 HIS A   1     -14.896  -6.166  -2.321  1.00  0.00    -0.351 N 
ATOM     25  H   UNL     1     -15.922  -5.976  -2.299  1.00  0.00     0.167 HD
ENDBRANCH  19  20
ENDBRANCH  15  19
ENDBRANCH  12  15
ENDBRANCH  10  11
BRANCH  10  26
ATOM     26  CB  PHE A   2     -13.965 -12.599  -5.325  1.00  0.00     0.070 C 
BRANCH  26  27
ATOM     27  CG  PHE A   2     -12.883 -13.200  -6.183  1.00  0.00    -0.045 A 
ATOM     28  CD1 PHE A   2     -12.723 -12.808  -7.526  1.00  0.00     0.004 A 
ATOM     29  CD2 PHE A   2     -12.091 -14.245  -5.682  1.00  0.00     0.004 A 
ATOM     30  CE1 PHE A   2     -11.747 -13.399  -8.324  1.00  0.00     0.000 A 
ATOM     31  CE2 PHE A   2     -11.133 -14.854  -6.496  1.00  0.00     0.000 A 
ATOM     32  CZ  PHE A   2     -10.954 -14.424  -7.812  1.00  0.00     0.000 A 
ENDBRANCH  26  27
ENDBRANCH  10  26
ENDBRANCH   7  10
ENDBRANCH   5   6
BRANCH   5  33
ATOM     33  CB  SER A   3     -18.058  -8.519  -6.331  1.00  0.00     0.191 C 
BRANCH  33  34
ATOM     34  OG  SER A   3     -19.197  -7.865  -5.839  1.00  0.00    -0.394 OA
ATOM     35  H   UNL     1     -18.875  -7.141  -5.242  1.00  0.00     0.210 HD
ENDBRANCH  33  34
ENDBRANCH   5  33
ENDBRANCH   1   5
BRANCH   3  36
ATOM     36  CA  LEU A   4     -19.812 -11.536  -3.055  1.00  0.00     0.171 C 
BRANCH  36  37
ATOM     37  C   LEU A   4     -21.168 -11.059  -3.464  1.00  0.00     0.243 C 
ATOM     38  N   ARG A   5     -21.505 -11.141  -4.842  1.00  0.00    -0.343 N 
ATOM     39  O   LEU A   4     -21.971 -10.549  -2.634  1.00  0.00    -0.273 OA
ATOM     40  H   UNL     1     -21.062 -11.902  -5.404  1.00  0.00     0.164 HD
BRANCH  38  41
ATOM     41  CA  ARG A   5     -22.680 -10.498  -5.387  1.00  0.00     0.171 C 
BRANCH  41  42
ATOM     42  C   ARG A   5     -23.898 -11.195  -4.885  1.00  0.00     0.243 C 
ATOM     43  N   ASN A   6     -24.982 -10.402  -4.433  1.00  0.00    -0.341 N 
ATOM     44  O   ARG A   5     -23.966 -12.455  -4.867  1.00  0.00    -0.273 OA
ATOM     45  H   UNL     1     -24.931  -9.364  -4.552  1.00  0.00     0.164 HD
BRANCH  43  46
ATOM     46  CA  ASN A   6     -26.190 -10.994  -3.883  1.00  0.00     0.201 C 
BRANCH  46  47
ATOM     47  C   ASN A   6     -27.053 -11.522  -4.997  1.00  0.00     0.326 C 
ATOM     48  O   ASN A   6     -27.151 -10.892  -6.084  1.00  0.00    -0.250 OA
BRANCH  47  49
ATOM     49  OXT ASN A   6     -27.773 -12.698  -4.811  1.00  0.00    -0.480 OA
ATOM     50  H   UNL     1     -28.370 -13.063  -5.543  1.00  0.00     0.296 HD
ENDBRANCH  47  49
ENDBRANCH  46  47
BRANCH  46  51
ATOM     51  CB  ASN A   6     -26.930  -9.934  -3.062  1.00  0.00     0.136 C 
BRANCH  51  52
ATOM     52  CG  ASN A   6     -28.019 -10.549  -2.252  1.00  0.00     0.220 C 
ATOM     53  ND2 ASN A   6     -27.701 -11.241  -1.053  1.00  0.00    -0.370 N 
ATOM     54  OD1 ASN A   6     -29.213 -10.484  -2.642  1.00  0.00    -0.275 OA
ATOM     55  H   UNL     1     -28.456 -11.688  -0.487  1.00  0.00     0.159 HD
ATOM     56  H   UNL     1     -26.713 -11.314  -0.724  1.00  0.00     0.159 HD
ENDBRANCH  51  52
ENDBRANCH  46  51
ENDBRANCH  43  46
ENDBRANCH  41  42
BRANCH  41  57
ATOM     57  CB  ARG A   5     -22.651 -10.519  -6.916  1.00  0.00     0.037 C 
BRANCH  57  58
ATOM     58  CG  ARG A   5     -21.463  -9.720  -7.459  1.00  0.00     0.024 C 
BRANCH  58  59
ATOM     59  CD  ARG A   5     -21.602  -9.481  -8.963  1.00  0.00     0.116 C 
BRANCH  59  60
ATOM     60  NE  ARG A   5     -21.191  -8.119  -9.283  1.00  0.00    -0.357 N 
ATOM     61  CZ  ARG A   5     -20.072  -7.775 -10.101  1.00  0.00     0.185 C 
ATOM     62  NH2 ARG A   5     -19.200  -8.775 -10.617  1.00  0.00    -0.370 N 
ATOM     63  H   UNL     1     -21.778  -7.344  -8.897  1.00  0.00     0.163 HD
ATOM     64  H   UNL     1     -18.494  -8.517 -11.342  1.00  0.00     0.159 HD
ATOM     65  H   UNL     1     -19.101  -9.714 -10.178  1.00  0.00     0.159 HD
BRANCH  61  66
ATOM     66  NH1 ARG A   5     -19.842  -6.533 -10.385  1.00  0.00    -0.270 NA
ATOM     67  H   UNL     1     -20.453  -5.762 -10.031  1.00  0.00     0.191 HD
ENDBRANCH  61  66
ENDBRANCH  59  60
ENDBRANCH  58  59
ENDBRANCH  57  58
ENDBRANCH  41  57
ENDBRANCH  38  41
ENDBRANCH  36  37
BRANCH  36  68
ATOM     68  CB  LEU A   4     -19.649 -11.688  -1.535  1.00  0.00     0.038 C 
BRANCH  68  69
ATOM     69  CG  LEU A   4     -20.294 -12.953  -0.947  1.00  0.00    -0.015 C 
ATOM     70  CD1 LEU A   4     -19.611 -14.230  -1.463  1.00  0.00     0.007 C 
ATOM     71  CD2 LEU A   4     -20.194 -12.897   0.582  1.00  0.00     0.007 C 
ENDBRANCH  68  69
ENDBRANCH  36  68
ENDBRANCH   3  36
TORSDOF 28
