REMARK SMILES CC(C)C[C@H](NC(=O)[C@H](CC(N)=O)NC(=O)[C@@H](N)CO)C(=O)N1CCC[C@H]1C(=O)N[C@@H](CCCNC(=N)N)C(=O)N[C@@H](CC(N)=O)C(=O)O
REMARK SMILES IDX 23 1 27 2 26 3 25 4 24 5 21 6 22 7 5 8 6 9 7 10 8 11 9 13
REMARK SMILES IDX 14 14 15 15 16 16 17 18 18 19 19 22 20 23 10 25 11 26 12 27
REMARK SMILES IDX 13 28 4 31 2 32 1 33 3 34 28 35 30 36 29 37 31 39 39 40
REMARK SMILES IDX 41 41 40 42 42 44 47 45 48 46 49 47 43 49 44 50 45 51 46 52
REMARK SMILES IDX 32 55 33 56 34 57 35 58 36 59 38 60 37 64
REMARK H PARENT 6 12 14 17 18 20 18 21 20 24 12 29 12 30 30 38 41 43 49 48
REMARK H PARENT 45 53 45 54 35 61 38 62 38 63 37 65
ROOT
ATOM      1  N   PRO A   4     -19.285 -12.634  -3.780  1.00  0.00    -0.329 N 
ATOM      2  CA  PRO A   4     -19.783 -11.513  -2.993  1.00  0.00     0.174 C 
ATOM      3  CB  PRO A   4     -18.743 -10.405  -3.168  1.00  0.00     0.037 C 
ATOM      4  CG  PRO A   4     -17.970 -10.765  -4.432  1.00  0.00     0.024 C 
ATOM      5  CD  PRO A   4     -18.138 -12.269  -4.601  1.00  0.00     0.120 C 
ENDROOT
BRANCH   1   6
ATOM      6  C   LEU A   3     -19.796 -13.975  -3.656  1.00  0.00     0.245 C 
ATOM      7  O   LEU A   3     -20.761 -14.197  -2.874  1.00  0.00    -0.272 OA
BRANCH   6   8
ATOM      8  CA  LEU A   3     -19.153 -15.126  -4.405  1.00  0.00     0.171 C 
BRANCH   8   9
ATOM      9  N   LEU A   3     -17.840 -15.421  -3.821  1.00  0.00    -0.342 N 
ATOM     10  C   ASN A   2     -17.627 -15.776  -2.443  1.00  0.00     0.243 C 
ATOM     11  O   ASN A   2     -18.607 -15.981  -1.677  1.00  0.00    -0.273 OA
ATOM     12  H   UNL     1     -17.002 -15.259  -4.425  1.00  0.00     0.164 HD
BRANCH  10  13
ATOM     13  CA  ASN A   2     -16.233 -15.830  -1.875  1.00  0.00     0.180 C 
BRANCH  13  14
ATOM     14  N   ASN A   2     -15.324 -16.497  -2.815  1.00  0.00    -0.342 N 
ATOM     15  C   SER A   1     -15.322 -17.924  -2.990  1.00  0.00     0.239 C 
ATOM     16  O   SER A   1     -16.177 -18.630  -2.388  1.00  0.00    -0.273 OA
ATOM     17  H   UNL     1     -14.637 -15.919  -3.350  1.00  0.00     0.164 HD
BRANCH  15  18
ATOM     18  CA  SER A   1     -14.278 -18.611  -3.844  1.00  0.00     0.167 C 
BRANCH  18  19
ATOM     19  N   SER A   1     -14.163 -18.008  -5.176  1.00  0.00    -0.318 NA
ATOM     20  H   UNL     1     -15.107 -17.991  -5.625  1.00  0.00     0.119 HD
ATOM     21  H   UNL     1     -13.824 -17.023  -5.109  1.00  0.00     0.119 HD
ENDBRANCH  18  19
BRANCH  18  22
ATOM     22  CB  SER A   1     -12.912 -18.655  -3.141  1.00  0.00     0.184 C 
BRANCH  22  23
ATOM     23  OG  SER A   1     -12.392 -17.365  -2.944  1.00  0.00    -0.394 OA
ATOM     24  H   UNL     1     -12.680 -17.072  -2.039  1.00  0.00     0.210 HD
ENDBRANCH  22  23
ENDBRANCH  18  22
ENDBRANCH  15  18
ENDBRANCH  13  14
BRANCH  13  25
ATOM     25  CB  ASN A   2     -15.751 -14.402  -1.558  1.00  0.00     0.134 C 
BRANCH  25  26
ATOM     26  CG  ASN A   2     -14.416 -14.415  -0.872  1.00  0.00     0.220 C 
ATOM     27  ND2 ASN A   2     -13.222 -14.114  -1.595  1.00  0.00    -0.370 N 
ATOM     28  OD1 ASN A   2     -14.346 -14.720   0.348  1.00  0.00    -0.275 OA
ATOM     29  H   UNL     1     -12.294 -14.153  -1.119  1.00  0.00     0.159 HD
ATOM     30  H   UNL     1     -13.259 -13.864  -2.608  1.00  0.00     0.159 HD
ENDBRANCH  25  26
ENDBRANCH  13  25
ENDBRANCH  10  13
ENDBRANCH   8   9
BRANCH   8  31
ATOM     31  CB  LEU A   3     -20.057 -16.386  -4.466  1.00  0.00     0.038 C 
BRANCH  31  32
ATOM     32  CG  LEU A   3     -19.661 -17.396  -5.572  1.00  0.00    -0.015 C 
ATOM     33  CD1 LEU A   3     -20.770 -18.443  -5.742  1.00  0.00     0.007 C 
ATOM     34  CD2 LEU A   3     -18.330 -18.101  -5.276  1.00  0.00     0.007 C 
ENDBRANCH  31  32
ENDBRANCH   8  31
ENDBRANCH   6   8
ENDBRANCH   1   6
BRANCH   2  35
ATOM     35  C   PRO A   4     -21.136 -11.053  -3.462  1.00  0.00     0.243 C 
ATOM     36  N   ARG A   5     -21.456 -11.106  -4.848  1.00  0.00    -0.343 N 
ATOM     37  O   PRO A   4     -21.958 -10.573  -2.633  1.00  0.00    -0.273 OA
ATOM     38  H   UNL     1     -20.821 -11.633  -5.487  1.00  0.00     0.164 HD
BRANCH  36  39
ATOM     39  CA  ARG A   5     -22.659 -10.495  -5.389  1.00  0.00     0.171 C 
BRANCH  39  40
ATOM     40  C   ARG A   5     -23.878 -11.197  -4.879  1.00  0.00     0.243 C 
ATOM     41  N   ASN A   6     -24.971 -10.406  -4.435  1.00  0.00    -0.341 N 
ATOM     42  O   ARG A   5     -23.947 -12.457  -4.864  1.00  0.00    -0.273 OA
ATOM     43  H   UNL     1     -24.922  -9.368  -4.559  1.00  0.00     0.164 HD
BRANCH  41  44
ATOM     44  CA  ASN A   6     -26.182 -10.995  -3.886  1.00  0.00     0.201 C 
BRANCH  44  45
ATOM     45  C   ASN A   6     -27.046 -11.524  -4.998  1.00  0.00     0.326 C 
ATOM     46  O   ASN A   6     -27.153 -10.890  -6.082  1.00  0.00    -0.250 OA
BRANCH  45  47
ATOM     47  OXT ASN A   6     -27.761 -12.703  -4.812  1.00  0.00    -0.480 OA
ATOM     48  H   UNL     1     -28.361 -13.068  -5.542  1.00  0.00     0.296 HD
ENDBRANCH  45  47
ENDBRANCH  44  45
BRANCH  44  49
ATOM     49  CB  ASN A   6     -26.923  -9.934  -3.066  1.00  0.00     0.136 C 
BRANCH  49  50
ATOM     50  CG  ASN A   6     -28.014 -10.549  -2.253  1.00  0.00     0.220 C 
ATOM     51  ND2 ASN A   6     -27.705 -11.241  -1.053  1.00  0.00    -0.370 N 
ATOM     52  OD1 ASN A   6     -29.208 -10.480  -2.643  1.00  0.00    -0.275 OA
ATOM     53  H   UNL     1     -26.724 -11.331  -0.707  1.00  0.00     0.159 HD
ATOM     54  H   UNL     1     -26.719 -11.323  -0.720  1.00  0.00     0.159 HD
ENDBRANCH  49  50
ENDBRANCH  44  49
ENDBRANCH  41  44
ENDBRANCH  39  40
BRANCH  39  55
ATOM     55  CB  ARG A   5     -22.637 -10.522  -6.916  1.00  0.00     0.037 C 
BRANCH  55  56
ATOM     56  CG  ARG A   5     -21.454  -9.715  -7.466  1.00  0.00     0.024 C 
BRANCH  56  57
ATOM     57  CD  ARG A   5     -21.607  -9.476  -8.968  1.00  0.00     0.116 C 
BRANCH  57  58
ATOM     58  NE  ARG A   5     -21.195  -8.115  -9.291  1.00  0.00    -0.357 N 
ATOM     59  CZ  ARG A   5     -20.072  -7.774 -10.103  1.00  0.00     0.185 C 
ATOM     60  NH2 ARG A   5     -19.201  -8.775 -10.619  1.00  0.00    -0.370 N 
ATOM     61  H   UNL     1     -21.785  -7.340  -8.912  1.00  0.00     0.163 HD
ATOM     62  H   UNL     1     -18.492  -8.517 -11.341  1.00  0.00     0.159 HD
ATOM     63  H   UNL     1     -19.114  -9.720 -10.190  1.00  0.00     0.159 HD
BRANCH  59  64
ATOM     64  NH1 ARG A   5     -19.839  -6.531 -10.385  1.00  0.00    -0.270 NA
ATOM     65  H   UNL     1     -20.449  -5.760 -10.034  1.00  0.00     0.191 HD
ENDBRANCH  59  64
ENDBRANCH  57  58
ENDBRANCH  56  57
ENDBRANCH  55  56
ENDBRANCH  39  55
ENDBRANCH  36  39
ENDBRANCH   2  35
TORSDOF 26
