REMARK SMILES CC(C)[C@H](NC(=O)[C@H](Cc1ccccc1)NC(=O)[C@@H](N)CO)C(=O)N[C@@H](CCCNC(=N)N)C(=O)N[C@@H](CCCNC(=N)N)C(=O)N[C@@H](CC(N)=O)C(=O)O
REMARK SMILES IDX 23 1 24 2 25 3 4 5 5 6 6 7 7 8 8 10 16 11 17 12 18 13 19 15
REMARK SMILES IDX 20 16 21 19 22 20 9 22 10 23 11 24 15 25 12 26 14 27 13 28
REMARK SMILES IDX 2 29 1 30 3 31 26 32 34 33 36 34 35 35 37 37 45 38 47 39
REMARK SMILES IDX 46 40 48 42 53 43 54 44 55 45 49 47 50 48 51 49 52 50 38 53
REMARK SMILES IDX 39 54 40 55 41 56 42 57 44 58 43 62 27 64 28 65 29 66 30 67
REMARK SMILES IDX 31 68 33 69 32 73
REMARK H PARENT 25 4 5 9 16 14 20 17 20 18 22 21 36 36 47 41 55 46 51 51 51 52
REMARK H PARENT 41 59 44 60 44 61 43 63 30 70 33 71 33 72 32 74
ROOT
ATOM      1  C   VAL A   3     -18.399 -10.526  -4.875  1.00  0.00     0.243 C 
ATOM      2  O   VAL A   3     -18.761 -11.396  -5.712  1.00  0.00    -0.273 OA
ATOM      3  N   ARG A   4     -18.846 -10.571  -3.524  1.00  0.00    -0.343 N 
ATOM      4  H   UNL     1     -18.569  -9.795  -2.879  1.00  0.00     0.164 HD
ENDROOT
BRANCH   1   5
ATOM      5  CA  VAL A   3     -17.444  -9.449  -5.264  1.00  0.00     0.174 C 
BRANCH   5   6
ATOM      6  N   VAL A   3     -16.215 -10.066  -5.720  1.00  0.00    -0.342 N 
ATOM      7  C   PHE A   2     -15.243 -10.544  -4.808  1.00  0.00     0.243 C 
ATOM      8  O   PHE A   2     -15.463 -10.556  -3.566  1.00  0.00    -0.273 OA
ATOM      9  H   UNL     1     -16.175 -10.487  -6.674  1.00  0.00     0.164 HD
BRANCH   7  10
ATOM     10  CA  PHE A   2     -13.970 -11.062  -5.372  1.00  0.00     0.175 C 
BRANCH  10  11
ATOM     11  N   PHE A   2     -12.847 -10.484  -4.656  1.00  0.00    -0.343 N 
ATOM     12  C   SER A   1     -12.594  -9.081  -4.704  1.00  0.00     0.239 C 
ATOM     13  O   SER A   1     -13.358  -8.313  -5.354  1.00  0.00    -0.273 OA
ATOM     14  H   UNL     1     -12.210 -11.100  -4.102  1.00  0.00     0.164 HD
BRANCH  12  15
ATOM     15  CA  SER A   1     -11.435  -8.534  -3.929  1.00  0.00     0.167 C 
BRANCH  15  16
ATOM     16  N   SER A   1     -10.850  -7.385  -4.622  1.00  0.00    -0.318 NA
ATOM     17  H   UNL     1     -11.543  -6.605  -4.694  1.00  0.00     0.119 HD
ATOM     18  H   UNL     1     -10.031  -7.039  -4.072  1.00  0.00     0.119 HD
ENDBRANCH  15  16
BRANCH  15  19
ATOM     19  CB  SER A   1     -11.840  -8.202  -2.478  1.00  0.00     0.184 C 
BRANCH  19  20
ATOM     20  OG  SER A   1     -12.063  -6.827  -2.318  1.00  0.00    -0.394 OA
ATOM     21  H   UNL     1     -12.320  -6.697  -1.369  1.00  0.00     0.210 HD
ENDBRANCH  19  20
ENDBRANCH  15  19
ENDBRANCH  12  15
ENDBRANCH  10  11
BRANCH  10  22
ATOM     22  CB  PHE A   2     -13.960 -12.597  -5.319  1.00  0.00     0.070 C 
BRANCH  22  23
ATOM     23  CG  PHE A   2     -12.881 -13.200  -6.181  1.00  0.00    -0.045 A 
ATOM     24  CD1 PHE A   2     -12.723 -12.806  -7.524  1.00  0.00     0.004 A 
ATOM     25  CD2 PHE A   2     -12.090 -14.245  -5.682  1.00  0.00     0.004 A 
ATOM     26  CE1 PHE A   2     -11.748 -13.398  -8.323  1.00  0.00     0.000 A 
ATOM     27  CE2 PHE A   2     -11.133 -14.854  -6.497  1.00  0.00     0.000 A 
ATOM     28  CZ  PHE A   2     -10.956 -14.424  -7.812  1.00  0.00     0.000 A 
ENDBRANCH  22  23
ENDBRANCH  10  22
ENDBRANCH   7  10
ENDBRANCH   5   6
BRANCH   5  29
ATOM     29  CB  VAL A   3     -18.053  -8.489  -6.315  1.00  0.00     0.015 C 
ATOM     30  CG1 VAL A   3     -17.500  -7.070  -6.163  1.00  0.00     0.010 C 
ATOM     31  CG2 VAL A   3     -17.852  -8.934  -7.765  1.00  0.00     0.010 C 
ENDBRANCH   5  29
ENDBRANCH   1   5
BRANCH   3  32
ATOM     32  CA  ARG A   4     -19.818 -11.536  -3.050  1.00  0.00     0.171 C 
BRANCH  32  33
ATOM     33  C   ARG A   4     -21.171 -11.057  -3.464  1.00  0.00     0.243 C 
ATOM     34  N   ARG A   5     -21.506 -11.141  -4.843  1.00  0.00    -0.343 N 
ATOM     35  O   ARG A   4     -21.976 -10.547  -2.637  1.00  0.00    -0.273 OA
ATOM     36  H   UNL     1     -21.069 -11.908  -5.401  1.00  0.00     0.164 HD
BRANCH  34  37
ATOM     37  CA  ARG A   5     -22.681 -10.497  -5.387  1.00  0.00     0.171 C 
BRANCH  37  38
ATOM     38  C   ARG A   5     -23.898 -11.195  -4.885  1.00  0.00     0.243 C 
ATOM     39  N   ASN A   6     -24.983 -10.402  -4.432  1.00  0.00    -0.341 N 
ATOM     40  O   ARG A   5     -23.966 -12.455  -4.867  1.00  0.00    -0.273 OA
ATOM     41  H   UNL     1     -24.932  -9.364  -4.552  1.00  0.00     0.164 HD
BRANCH  39  42
ATOM     42  CA  ASN A   6     -26.190 -10.994  -3.883  1.00  0.00     0.201 C 
BRANCH  42  43
ATOM     43  C   ASN A   6     -27.053 -11.522  -4.997  1.00  0.00     0.326 C 
ATOM     44  O   ASN A   6     -27.151 -10.892  -6.084  1.00  0.00    -0.250 OA
BRANCH  43  45
ATOM     45  OXT ASN A   6     -27.774 -12.698  -4.811  1.00  0.00    -0.480 OA
ATOM     46  H   UNL     1     -28.371 -13.062  -5.543  1.00  0.00     0.296 HD
ENDBRANCH  43  45
ENDBRANCH  42  43
BRANCH  42  47
ATOM     47  CB  ASN A   6     -26.930  -9.934  -3.062  1.00  0.00     0.136 C 
BRANCH  47  48
ATOM     48  CG  ASN A   6     -28.020 -10.549  -2.252  1.00  0.00     0.220 C 
ATOM     49  ND2 ASN A   6     -27.701 -11.241  -1.053  1.00  0.00    -0.370 N 
ATOM     50  OD1 ASN A   6     -29.213 -10.484  -2.642  1.00  0.00    -0.275 OA
ATOM     51  H   UNL     1     -28.456 -11.688  -0.487  1.00  0.00     0.159 HD
ATOM     52  H   UNL     1     -26.713 -11.314  -0.724  1.00  0.00     0.159 HD
ENDBRANCH  47  48
ENDBRANCH  42  47
ENDBRANCH  39  42
ENDBRANCH  37  38
BRANCH  37  53
ATOM     53  CB  ARG A   5     -22.654 -10.516  -6.915  1.00  0.00     0.037 C 
BRANCH  53  54
ATOM     54  CG  ARG A   5     -21.467  -9.716  -7.458  1.00  0.00     0.024 C 
BRANCH  54  55
ATOM     55  CD  ARG A   5     -21.607  -9.480  -8.963  1.00  0.00     0.116 C 
BRANCH  55  56
ATOM     56  NE  ARG A   5     -21.189  -8.121  -9.291  1.00  0.00    -0.357 N 
ATOM     57  CZ  ARG A   5     -20.099  -7.778 -10.144  1.00  0.00     0.185 C 
ATOM     58  NH2 ARG A   5     -19.239  -8.777 -10.693  1.00  0.00    -0.370 N 
ATOM     59  H   UNL     1     -21.757  -7.339  -8.890  1.00  0.00     0.163 HD
ATOM     60  H   UNL     1     -18.510  -8.507 -11.390  1.00  0.00     0.159 HD
ATOM     61  H   UNL     1     -19.209  -9.761 -10.355  1.00  0.00     0.159 HD
BRANCH  57  62
ATOM     62  NH1 ARG A   5     -19.861  -6.528 -10.383  1.00  0.00    -0.270 NA
ATOM     63  H   UNL     1     -19.063  -6.223 -10.985  1.00  0.00     0.191 HD
ENDBRANCH  57  62
ENDBRANCH  55  56
ENDBRANCH  54  55
ENDBRANCH  53  54
ENDBRANCH  37  53
ENDBRANCH  34  37
ENDBRANCH  32  33
BRANCH  32  64
ATOM     64  CB  ARG A   4     -19.669 -11.684  -1.525  1.00  0.00     0.037 C 
BRANCH  64  65
ATOM     65  CG  ARG A   4     -20.297 -12.963  -0.962  1.00  0.00     0.024 C 
BRANCH  65  66
ATOM     66  CD  ARG A   4     -19.615 -14.251  -1.458  1.00  0.00     0.116 C 
BRANCH  66  67
ATOM     67  NE  ARG A   4     -18.156 -14.186  -1.350  1.00  0.00    -0.357 N 
ATOM     68  CZ  ARG A   4     -17.422 -14.180  -0.112  1.00  0.00     0.185 C 
ATOM     69  NH2 ARG A   4     -16.029 -13.871  -0.129  1.00  0.00    -0.370 N 
ATOM     70  H   UNL     1     -17.613 -14.110  -2.239  1.00  0.00     0.163 HD
ATOM     71  H   UNL     1     -15.549 -13.633  -1.025  1.00  0.00     0.159 HD
ATOM     72  H   UNL     1     -15.474 -13.870   0.756  1.00  0.00     0.159 HD
BRANCH  68  73
ATOM     73  NH1 ARG A   4     -17.989 -14.467   1.019  1.00  0.00    -0.270 NA
ATOM     74  H   UNL     1     -18.996 -14.721   1.114  1.00  0.00     0.191 HD
ENDBRANCH  68  73
ENDBRANCH  66  67
ENDBRANCH  65  66
ENDBRANCH  64  65
ENDBRANCH  32  64
ENDBRANCH   3  32
TORSDOF 30
