REMARK SMILES CC(C)C[C@H](NC(=O)[C@H](Cc1ccc(O)cc1)NC(=O)[C@H](C)NC(=O)[C@@H](N)CO)C(=O)N[C@@H](CCCNC(=N)N)C(=O)N[C@@H](CC(N)=O)C(=O)O
REMARK SMILES IDX 7 1 8 2 6 3 9 5 18 6 19 7 20 8 21 10 22 11 23 12 24 13 25 14
REMARK SMILES IDX 26 16 27 17 28 20 29 21 10 23 11 24 12 25 17 26 13 27 16 28
REMARK SMILES IDX 14 29 15 30 5 32 30 33 32 34 31 35 33 37 41 38 43 39 42 40
REMARK SMILES IDX 44 42 49 43 50 44 51 45 45 47 46 48 47 49 48 50 34 53 35 54
REMARK SMILES IDX 36 55 37 56 38 57 40 58 39 62 4 64 2 65 1 66 3 67
REMARK H PARENT 6 4 18 9 23 15 27 18 27 19 29 22 15 31 32 36 43 41 51 46 47 51
REMARK H PARENT 47 52 37 59 40 60 40 61 39 63
ROOT
ATOM      1  C   TYR A   3     -18.384 -10.527  -4.872  1.00  0.00     0.243 C 
ATOM      2  O   TYR A   3     -18.745 -11.392  -5.716  1.00  0.00    -0.273 OA
ATOM      3  N   LEU A   4     -18.843 -10.572  -3.527  1.00  0.00    -0.343 N 
ATOM      4  H   UNL     1     -18.581  -9.788  -2.885  1.00  0.00     0.164 HD
ENDROOT
BRANCH   1   5
ATOM      5  CA  TYR A   3     -17.452  -9.429  -5.255  1.00  0.00     0.175 C 
BRANCH   5   6
ATOM      6  N   TYR A   3     -16.208 -10.003  -5.738  1.00  0.00    -0.342 N 
ATOM      7  C   ALA A   2     -15.254 -10.557  -4.839  1.00  0.00     0.242 C 
ATOM      8  O   ALA A   2     -15.477 -10.580  -3.596  1.00  0.00    -0.273 OA
ATOM      9  H   UNL     1     -16.014 -10.027  -6.765  1.00  0.00     0.164 HD
BRANCH   7  10
ATOM     10  CA  ALA A   2     -13.970 -11.084  -5.391  1.00  0.00     0.168 C 
ATOM     11  CB  ALA A   2     -13.932 -12.606  -5.285  1.00  0.00     0.041 C 
BRANCH  10  12
ATOM     12  N   ALA A   2     -12.854 -10.487  -4.674  1.00  0.00    -0.343 N 
ATOM     13  C   SER A   1     -12.605  -9.083  -4.716  1.00  0.00     0.239 C 
ATOM     14  O   SER A   1     -13.371  -8.316  -5.362  1.00  0.00    -0.273 OA
ATOM     15  H   UNL     1     -12.221 -11.094  -4.104  1.00  0.00     0.164 HD
BRANCH  13  16
ATOM     16  CA  SER A   1     -11.442  -8.536  -3.938  1.00  0.00     0.167 C 
BRANCH  16  17
ATOM     17  N   SER A   1     -10.849  -7.379  -4.610  1.00  0.00    -0.318 NA
ATOM     18  H   UNL     1     -11.577  -6.650  -4.793  1.00  0.00     0.119 HD
ATOM     19  H   UNL     1     -10.480  -7.686  -5.539  1.00  0.00     0.119 HD
ENDBRANCH  16  17
BRANCH  16  20
ATOM     20  CB  SER A   1     -11.848  -8.201  -2.488  1.00  0.00     0.184 C 
BRANCH  20  21
ATOM     21  OG  SER A   1     -12.054  -6.823  -2.318  1.00  0.00    -0.394 OA
ATOM     22  H   UNL     1     -11.171  -6.420  -2.109  1.00  0.00     0.210 HD
ENDBRANCH  20  21
ENDBRANCH  16  20
ENDBRANCH  13  16
ENDBRANCH  10  12
ENDBRANCH   7  10
ENDBRANCH   5   6
BRANCH   5  23
ATOM     23  CB  TYR A   3     -18.096  -8.510  -6.302  1.00  0.00     0.070 C 
BRANCH  23  24
ATOM     24  CG  TYR A   3     -17.496  -7.128  -6.260  1.00  0.00    -0.045 A 
ATOM     25  CD1 TYR A   3     -18.005  -6.156  -5.384  1.00  0.00     0.007 A 
ATOM     26  CD2 TYR A   3     -16.377  -6.824  -7.051  1.00  0.00     0.007 A 
ATOM     27  CE1 TYR A   3     -17.415  -4.890  -5.316  1.00  0.00     0.046 A 
ATOM     28  CE2 TYR A   3     -15.787  -5.558  -6.981  1.00  0.00     0.046 A 
ATOM     29  CZ  TYR A   3     -16.306  -4.588  -6.114  1.00  0.00     0.115 A 
BRANCH  29  30
ATOM     30  OH  TYR A   3     -15.726  -3.323  -6.034  1.00  0.00    -0.508 OA
ATOM     31  H   UNL     1     -14.922  -3.074  -6.597  1.00  0.00     0.293 HD
ENDBRANCH  29  30
ENDBRANCH  23  24
ENDBRANCH   5  23
ENDBRANCH   1   5
BRANCH   3  32
ATOM     32  CA  LEU A   4     -19.814 -11.540  -3.056  1.00  0.00     0.171 C 
BRANCH  32  33
ATOM     33  C   LEU A   4     -21.168 -11.059  -3.464  1.00  0.00     0.243 C 
ATOM     34  N   ARG A   5     -21.504 -11.141  -4.843  1.00  0.00    -0.343 N 
ATOM     35  O   LEU A   4     -21.971 -10.550  -2.634  1.00  0.00    -0.273 OA
ATOM     36  H   UNL     1     -21.059 -11.899  -5.406  1.00  0.00     0.164 HD
BRANCH  34  37
ATOM     37  CA  ARG A   5     -22.679 -10.497  -5.387  1.00  0.00     0.171 C 
BRANCH  37  38
ATOM     38  C   ARG A   5     -23.897 -11.195  -4.886  1.00  0.00     0.243 C 
ATOM     39  N   ASN A   6     -24.982 -10.402  -4.433  1.00  0.00    -0.341 N 
ATOM     40  O   ARG A   5     -23.966 -12.455  -4.867  1.00  0.00    -0.273 OA
ATOM     41  H   UNL     1     -24.931  -9.364  -4.552  1.00  0.00     0.164 HD
BRANCH  39  42
ATOM     42  CA  ASN A   6     -26.189 -10.994  -3.883  1.00  0.00     0.201 C 
BRANCH  42  43
ATOM     43  C   ASN A   6     -27.053 -11.522  -4.997  1.00  0.00     0.326 C 
ATOM     44  O   ASN A   6     -27.151 -10.892  -6.084  1.00  0.00    -0.250 OA
BRANCH  43  45
ATOM     45  OXT ASN A   6     -27.773 -12.698  -4.811  1.00  0.00    -0.480 OA
ATOM     46  H   UNL     1     -28.370 -13.063  -5.543  1.00  0.00     0.296 HD
ENDBRANCH  43  45
ENDBRANCH  42  43
BRANCH  42  47
ATOM     47  CB  ASN A   6     -26.930  -9.934  -3.062  1.00  0.00     0.136 C 
BRANCH  47  48
ATOM     48  CG  ASN A   6     -28.019 -10.549  -2.252  1.00  0.00     0.220 C 
ATOM     49  ND2 ASN A   6     -27.701 -11.241  -1.053  1.00  0.00    -0.370 N 
ATOM     50  OD1 ASN A   6     -29.213 -10.484  -2.643  1.00  0.00    -0.275 OA
ATOM     51  H   UNL     1     -28.456 -11.688  -0.487  1.00  0.00     0.159 HD
ATOM     52  H   UNL     1     -26.713 -11.314  -0.724  1.00  0.00     0.159 HD
ENDBRANCH  47  48
ENDBRANCH  42  47
ENDBRANCH  39  42
ENDBRANCH  37  38
BRANCH  37  53
ATOM     53  CB  ARG A   5     -22.649 -10.518  -6.916  1.00  0.00     0.037 C 
BRANCH  53  54
ATOM     54  CG  ARG A   5     -21.462  -9.717  -7.459  1.00  0.00     0.024 C 
BRANCH  54  55
ATOM     55  CD  ARG A   5     -21.602  -9.478  -8.963  1.00  0.00     0.116 C 
BRANCH  55  56
ATOM     56  NE  ARG A   5     -21.186  -8.116  -9.284  1.00  0.00    -0.357 N 
ATOM     57  CZ  ARG A   5     -20.069  -7.777 -10.102  1.00  0.00     0.185 C 
ATOM     58  NH2 ARG A   5     -19.197  -8.780 -10.616  1.00  0.00    -0.370 N 
ATOM     59  H   UNL     1     -21.767  -7.335  -8.902  1.00  0.00     0.163 HD
ATOM     60  H   UNL     1     -18.498  -8.536 -11.352  1.00  0.00     0.159 HD
ATOM     61  H   UNL     1     -19.096  -9.715 -10.168  1.00  0.00     0.159 HD
BRANCH  57  62
ATOM     62  NH1 ARG A   5     -19.849  -6.531 -10.378  1.00  0.00    -0.270 NA
ATOM     63  H   UNL     1     -19.042  -6.232 -10.971  1.00  0.00     0.191 HD
ENDBRANCH  57  62
ENDBRANCH  55  56
ENDBRANCH  54  55
ENDBRANCH  53  54
ENDBRANCH  37  53
ENDBRANCH  34  37
ENDBRANCH  32  33
BRANCH  32  64
ATOM     64  CB  LEU A   4     -19.650 -11.690  -1.535  1.00  0.00     0.038 C 
BRANCH  64  65
ATOM     65  CG  LEU A   4     -20.295 -12.955  -0.947  1.00  0.00    -0.015 C 
ATOM     66  CD1 LEU A   4     -19.611 -14.231  -1.462  1.00  0.00     0.007 C 
ATOM     67  CD2 LEU A   4     -20.194 -12.897   0.582  1.00  0.00     0.007 C 
ENDBRANCH  64  65
ENDBRANCH  32  64
ENDBRANCH   3  32
TORSDOF 27
