REMARK SMILES CC(C)C[C@H](NC(=O)[C@H](CO)NC(=O)[C@H](Cc1ccccc1)NC(=O)CN)C(=O)N[C@@H](CCCNC(=N)N)C(=O)N[C@@H](CC(N)=O)C(=O)O
REMARK SMILES IDX 5 1 6 2 7 3 8 4 9 6 12 7 13 8 14 9 15 11 23 12 24 13 25 14
REMARK SMILES IDX 26 16 27 17 16 20 17 21 18 22 22 23 19 24 21 25 20 26 10 27
REMARK SMILES IDX 11 28 28 30 30 31 29 32 31 34 39 35 41 36 40 37 42 39 47 40
REMARK SMILES IDX 48 41 49 42 43 44 44 45 45 46 46 47 32 50 33 51 34 52 35 53
REMARK SMILES IDX 36 54 38 55 37 59 4 61 2 62 1 63 3 64
REMARK H PARENT 6 5 12 10 23 15 27 18 27 19 11 29 30 33 41 38 49 43 45 48
REMARK H PARENT 45 49 35 56 38 57 38 58 37 60
ROOT
ATOM      1  CA  LEU A   4     -19.812 -11.537  -3.056  1.00  0.00     0.171 C 
ENDROOT
BRANCH   1   2
ATOM      2  N   LEU A   4     -18.843 -10.567  -3.529  1.00  0.00    -0.342 N 
ATOM      3  C   SER A   3     -18.394 -10.520  -4.878  1.00  0.00     0.245 C 
ATOM      4  O   SER A   3     -18.751 -11.393  -5.715  1.00  0.00    -0.273 OA
ATOM      5  H   UNL     1     -18.568  -9.789  -2.886  1.00  0.00     0.164 HD
BRANCH   3   6
ATOM      6  CA  SER A   3     -17.454  -9.430  -5.268  1.00  0.00     0.197 C 
BRANCH   6   7
ATOM      7  N   SER A   3     -16.209 -10.011  -5.730  1.00  0.00    -0.340 N 
ATOM      8  C   PHE A   2     -15.254 -10.544  -4.822  1.00  0.00     0.243 C 
ATOM      9  O   PHE A   2     -15.481 -10.573  -3.581  1.00  0.00    -0.273 OA
ATOM     10  H   UNL     1     -16.012 -10.060  -6.755  1.00  0.00     0.164 HD
BRANCH   8  11
ATOM     11  CA  PHE A   2     -13.972 -11.061  -5.377  1.00  0.00     0.175 C 
BRANCH  11  12
ATOM     12  N   PHE A   2     -12.851 -10.484  -4.654  1.00  0.00    -0.343 N 
ATOM     13  C   GLY A   1     -12.594  -9.082  -4.701  1.00  0.00     0.234 C 
ATOM     14  O   GLY A   1     -13.352  -8.313  -5.355  1.00  0.00    -0.274 OA
ATOM     15  H   UNL     1     -12.215 -11.101  -4.099  1.00  0.00     0.164 HD
BRANCH  13  16
ATOM     16  CA  GLY A   1     -11.453  -8.528  -3.913  1.00  0.00     0.178 C 
BRANCH  16  17
ATOM     17  N   GLY A   1     -10.883  -7.370  -4.587  1.00  0.00    -0.322 NA
ATOM     18  H   UNL     1     -10.143  -6.972  -3.965  1.00  0.00     0.119 HD
ATOM     19  H   UNL     1     -10.397  -7.702  -5.452  1.00  0.00     0.119 HD
ENDBRANCH  16  17
ENDBRANCH  13  16
ENDBRANCH  11  12
BRANCH  11  20
ATOM     20  CB  PHE A   2     -13.962 -12.596  -5.323  1.00  0.00     0.070 C 
BRANCH  20  21
ATOM     21  CG  PHE A   2     -12.882 -13.200  -6.182  1.00  0.00    -0.045 A 
ATOM     22  CD1 PHE A   2     -12.723 -12.807  -7.525  1.00  0.00     0.004 A 
ATOM     23  CD2 PHE A   2     -12.090 -14.244  -5.682  1.00  0.00     0.004 A 
ATOM     24  CE1 PHE A   2     -11.748 -13.399  -8.324  1.00  0.00     0.000 A 
ATOM     25  CE2 PHE A   2     -11.133 -14.854  -6.496  1.00  0.00     0.000 A 
ATOM     26  CZ  PHE A   2     -10.955 -14.424  -7.812  1.00  0.00     0.000 A 
ENDBRANCH  20  21
ENDBRANCH  11  20
ENDBRANCH   8  11
ENDBRANCH   6   7
BRANCH   6  27
ATOM     27  CB  SER A   3     -18.061  -8.510  -6.328  1.00  0.00     0.191 C 
BRANCH  27  28
ATOM     28  OG  SER A   3     -18.253  -9.187  -7.543  1.00  0.00    -0.394 OA
ATOM     29  H   UNL     1     -17.562  -8.862  -8.176  1.00  0.00     0.210 HD
ENDBRANCH  27  28
ENDBRANCH   6  27
ENDBRANCH   3   6
ENDBRANCH   1   2
BRANCH   1  30
ATOM     30  C   LEU A   4     -21.168 -11.059  -3.464  1.00  0.00     0.243 C 
ATOM     31  N   ARG A   5     -21.506 -11.141  -4.843  1.00  0.00    -0.343 N 
ATOM     32  O   LEU A   4     -21.970 -10.550  -2.634  1.00  0.00    -0.273 OA
ATOM     33  H   UNL     1     -21.065 -11.903  -5.405  1.00  0.00     0.164 HD
BRANCH  31  34
ATOM     34  CA  ARG A   5     -22.681 -10.496  -5.385  1.00  0.00     0.171 C 
BRANCH  34  35
ATOM     35  C   ARG A   5     -23.898 -11.194  -4.884  1.00  0.00     0.243 C 
ATOM     36  N   ASN A   6     -24.983 -10.402  -4.432  1.00  0.00    -0.341 N 
ATOM     37  O   ARG A   5     -23.966 -12.454  -4.867  1.00  0.00    -0.273 OA
ATOM     38  H   UNL     1     -24.932  -9.364  -4.552  1.00  0.00     0.164 HD
BRANCH  36  39
ATOM     39  CA  ASN A   6     -26.190 -10.994  -3.883  1.00  0.00     0.201 C 
BRANCH  39  40
ATOM     40  C   ASN A   6     -27.053 -11.522  -4.997  1.00  0.00     0.326 C 
ATOM     41  O   ASN A   6     -27.151 -10.892  -6.084  1.00  0.00    -0.250 OA
BRANCH  40  42
ATOM     42  OXT ASN A   6     -27.774 -12.698  -4.811  1.00  0.00    -0.480 OA
ATOM     43  H   UNL     1     -28.371 -13.062  -5.543  1.00  0.00     0.296 HD
ENDBRANCH  40  42
ENDBRANCH  39  40
BRANCH  39  44
ATOM     44  CB  ASN A   6     -26.930  -9.934  -3.062  1.00  0.00     0.136 C 
BRANCH  44  45
ATOM     45  CG  ASN A   6     -28.020 -10.549  -2.252  1.00  0.00     0.220 C 
ATOM     46  ND2 ASN A   6     -27.701 -11.242  -1.053  1.00  0.00    -0.370 N 
ATOM     47  OD1 ASN A   6     -29.214 -10.484  -2.642  1.00  0.00    -0.275 OA
ATOM     48  H   UNL     1     -26.713 -11.314  -0.724  1.00  0.00     0.159 HD
ATOM     49  H   UNL     1     -28.456 -11.688  -0.487  1.00  0.00     0.159 HD
ENDBRANCH  44  45
ENDBRANCH  39  44
ENDBRANCH  36  39
ENDBRANCH  34  35
BRANCH  34  50
ATOM     50  CB  ARG A   5     -22.657 -10.513  -6.914  1.00  0.00     0.037 C 
BRANCH  50  51
ATOM     51  CG  ARG A   5     -21.459  -9.732  -7.460  1.00  0.00     0.024 C 
BRANCH  51  52
ATOM     52  CD  ARG A   5     -21.605  -9.482  -8.963  1.00  0.00     0.116 C 
BRANCH  52  53
ATOM     53  NE  ARG A   5     -21.188  -8.120  -9.279  1.00  0.00    -0.357 N 
ATOM     54  CZ  ARG A   5     -20.074  -7.776 -10.103  1.00  0.00     0.185 C 
ATOM     55  NH2 ARG A   5     -19.206  -8.774 -10.629  1.00  0.00    -0.370 N 
ATOM     56  H   UNL     1     -21.769  -7.345  -8.883  1.00  0.00     0.163 HD
ATOM     57  H   UNL     1     -19.134  -9.733 -10.228  1.00  0.00     0.159 HD
ATOM     58  H   UNL     1     -18.488  -8.508 -11.339  1.00  0.00     0.159 HD
BRANCH  54  59
ATOM     59  NH1 ARG A   5     -19.842  -6.533 -10.381  1.00  0.00    -0.270 NA
ATOM     60  H   UNL     1     -20.448  -5.762 -10.021  1.00  0.00     0.191 HD
ENDBRANCH  54  59
ENDBRANCH  52  53
ENDBRANCH  51  52
ENDBRANCH  50  51
ENDBRANCH  34  50
ENDBRANCH  31  34
ENDBRANCH   1  30
BRANCH   1  61
ATOM     61  CB  LEU A   4     -19.649 -11.688  -1.536  1.00  0.00     0.038 C 
BRANCH  61  62
ATOM     62  CG  LEU A   4     -20.294 -12.953  -0.948  1.00  0.00    -0.015 C 
ATOM     63  CD1 LEU A   4     -19.611 -14.230  -1.463  1.00  0.00     0.007 C 
ATOM     64  CD2 LEU A   4     -20.194 -12.896   0.581  1.00  0.00     0.007 C 
ENDBRANCH  61  62
ENDBRANCH   1  61
TORSDOF 26
