REMARK SMILES CC(C)C[C@H](NC(=O)[C@@H]1CCCN1C(=O)[C@H](Cc1c[nH]cn1)NC(=O)[C@@H](N)CO)C(=O)N[C@@H](CCCNC(=N)N)C(=O)N[C@@H](CC(N)=O)C(=O)O
REMARK SMILES IDX 7 1 8 2 6 3 9 5 13 6 12 7 10 8 11 9 14 10 15 11 16 12 23 13
REMARK SMILES IDX 24 14 25 15 26 17 27 18 28 21 29 22 17 24 18 25 22 26 19 27
REMARK SMILES IDX 21 28 20 29 5 31 30 32 32 33 31 34 33 36 41 37 43 38 42 39
REMARK SMILES IDX 44 41 49 42 50 43 51 44 45 46 46 47 47 48 48 49 34 52 35 53
REMARK SMILES IDX 36 54 37 55 38 56 40 57 39 61 4 63 2 64 1 65 3 66
REMARK H PARENT 6 4 23 16 27 19 27 20 29 23 20 30 32 35 43 40 51 45 47 50
REMARK H PARENT 47 51 37 58 40 59 40 60 39 62
ROOT
ATOM      1  C   PRO A   3     -18.356 -10.542  -4.888  1.00  0.00     0.243 C 
ATOM      2  O   PRO A   3     -18.759 -11.390  -5.729  1.00  0.00    -0.273 OA
ATOM      3  N   LEU A   4     -18.833 -10.558  -3.545  1.00  0.00    -0.343 N 
ATOM      4  H   UNL     1     -18.563  -9.764  -2.919  1.00  0.00     0.164 HD
ENDROOT
BRANCH   1   5
ATOM      5  CA  PRO A   3     -17.371  -9.481  -5.283  1.00  0.00     0.174 C 
ATOM      6  N   PRO A   3     -16.493  -9.947  -6.350  1.00  0.00    -0.329 N 
ATOM      7  CD  PRO A   3     -16.762  -9.281  -7.615  1.00  0.00     0.120 C 
ATOM      8  CB  PRO A   3     -18.070  -8.241  -5.836  1.00  0.00     0.037 C 
ATOM      9  CG  PRO A   3     -17.904  -8.310  -7.349  1.00  0.00     0.024 C 
BRANCH   6  10
ATOM     10  C   HIS A   2     -15.462 -10.935  -6.120  1.00  0.00     0.246 C 
ATOM     11  O   HIS A   2     -15.554 -11.684  -5.110  1.00  0.00    -0.272 OA
BRANCH  10  12
ATOM     12  CA  HIS A   2     -14.207 -11.051  -6.966  1.00  0.00     0.177 C 
BRANCH  12  13
ATOM     13  N   HIS A   2     -14.470 -10.927  -8.404  1.00  0.00    -0.342 N 
ATOM     14  C   SER A   1     -15.166 -11.944  -9.140  1.00  0.00     0.239 C 
ATOM     15  O   SER A   1     -15.787 -12.854  -8.526  1.00  0.00    -0.273 OA
ATOM     16  H   UNL     1     -14.032 -10.146  -8.942  1.00  0.00     0.164 HD
BRANCH  14  17
ATOM     17  CA  SER A   1     -15.202 -11.889 -10.650  1.00  0.00     0.167 C 
BRANCH  17  18
ATOM     18  N   SER A   1     -15.249 -13.233 -11.235  1.00  0.00    -0.318 NA
ATOM     19  H   UNL     1     -16.111 -13.730 -10.911  1.00  0.00     0.119 HD
ATOM     20  H   UNL     1     -14.422 -13.777 -10.895  1.00  0.00     0.119 HD
ENDBRANCH  17  18
BRANCH  17  21
ATOM     21  CB  SER A   1     -16.399 -11.055 -11.124  1.00  0.00     0.184 C 
BRANCH  21  22
ATOM     22  OG  SER A   1     -16.397 -10.941 -12.522  1.00  0.00    -0.394 OA
ATOM     23  H   UNL     1     -16.843 -11.754 -12.877  1.00  0.00     0.210 HD
ENDBRANCH  21  22
ENDBRANCH  17  21
ENDBRANCH  14  17
ENDBRANCH  12  13
BRANCH  12  24
ATOM     24  CB  HIS A   2     -13.103 -10.080  -6.494  1.00  0.00     0.093 C 
BRANCH  24  25
ATOM     25  CG  HIS A   2     -13.489  -8.632  -6.577  1.00  0.00     0.061 A 
ATOM     26  ND1 HIS A   2     -13.299  -7.859  -7.665  1.00  0.00    -0.242 NA
ATOM     27  CD2 HIS A   2     -14.107  -7.900  -5.586  1.00  0.00     0.107 A 
ATOM     28  CE1 HIS A   2     -13.814  -6.663  -7.308  1.00  0.00     0.196 A 
ATOM     29  NE2 HIS A   2     -14.311  -6.661  -6.056  1.00  0.00    -0.351 N 
ATOM     30  H   UNL     1     -14.764  -5.864  -5.558  1.00  0.00     0.167 HD
ENDBRANCH  24  25
ENDBRANCH  12  24
ENDBRANCH  10  12
ENDBRANCH   6  10
ENDBRANCH   1   5
BRANCH   3  31
ATOM     31  CA  LEU A   4     -19.804 -11.527  -3.063  1.00  0.00     0.171 C 
BRANCH  31  32
ATOM     32  C   LEU A   4     -21.163 -11.054  -3.467  1.00  0.00     0.243 C 
ATOM     33  N   ARG A   5     -21.504 -11.140  -4.844  1.00  0.00    -0.343 N 
ATOM     34  O   LEU A   4     -21.966 -10.549  -2.635  1.00  0.00    -0.273 OA
ATOM     35  H   UNL     1     -21.067 -11.906  -5.404  1.00  0.00     0.164 HD
BRANCH  33  36
ATOM     36  CA  ARG A   5     -22.680 -10.496  -5.386  1.00  0.00     0.171 C 
BRANCH  36  37
ATOM     37  C   ARG A   5     -23.897 -11.194  -4.884  1.00  0.00     0.243 C 
ATOM     38  N   ASN A   6     -24.982 -10.402  -4.432  1.00  0.00    -0.341 N 
ATOM     39  O   ARG A   5     -23.965 -12.454  -4.867  1.00  0.00    -0.273 OA
ATOM     40  H   UNL     1     -24.932  -9.364  -4.552  1.00  0.00     0.164 HD
BRANCH  38  41
ATOM     41  CA  ASN A   6     -26.190 -10.994  -3.883  1.00  0.00     0.201 C 
BRANCH  41  42
ATOM     42  C   ASN A   6     -27.053 -11.522  -4.997  1.00  0.00     0.326 C 
ATOM     43  O   ASN A   6     -27.151 -10.892  -6.084  1.00  0.00    -0.250 OA
BRANCH  42  44
ATOM     44  OXT ASN A   6     -27.773 -12.698  -4.811  1.00  0.00    -0.480 OA
ATOM     45  H   UNL     1     -28.370 -13.063  -5.543  1.00  0.00     0.296 HD
ENDBRANCH  42  44
ENDBRANCH  41  42
BRANCH  41  46
ATOM     46  CB  ASN A   6     -26.930  -9.934  -3.062  1.00  0.00     0.136 C 
BRANCH  46  47
ATOM     47  CG  ASN A   6     -28.019 -10.549  -2.252  1.00  0.00     0.220 C 
ATOM     48  ND2 ASN A   6     -27.701 -11.242  -1.053  1.00  0.00    -0.370 N 
ATOM     49  OD1 ASN A   6     -29.213 -10.484  -2.642  1.00  0.00    -0.275 OA
ATOM     50  H   UNL     1     -26.713 -11.314  -0.724  1.00  0.00     0.159 HD
ATOM     51  H   UNL     1     -28.456 -11.688  -0.487  1.00  0.00     0.159 HD
ENDBRANCH  46  47
ENDBRANCH  41  46
ENDBRANCH  38  41
ENDBRANCH  36  37
BRANCH  36  52
ATOM     52  CB  ARG A   5     -22.653 -10.513  -6.915  1.00  0.00     0.037 C 
BRANCH  52  53
ATOM     53  CG  ARG A   5     -21.458  -9.727  -7.460  1.00  0.00     0.024 C 
BRANCH  53  54
ATOM     54  CD  ARG A   5     -21.604  -9.479  -8.964  1.00  0.00     0.116 C 
BRANCH  54  55
ATOM     55  NE  ARG A   5     -21.187  -8.117  -9.284  1.00  0.00    -0.357 N 
ATOM     56  CZ  ARG A   5     -20.075  -7.777 -10.110  1.00  0.00     0.185 C 
ATOM     57  NH2 ARG A   5     -19.204  -8.779 -10.629  1.00  0.00    -0.370 N 
ATOM     58  H   UNL     1     -21.763  -7.336  -8.894  1.00  0.00     0.163 HD
ATOM     59  H   UNL     1     -19.120  -9.725 -10.201  1.00  0.00     0.159 HD
ATOM     60  H   UNL     1     -18.495  -8.530 -11.354  1.00  0.00     0.159 HD
BRANCH  56  61
ATOM     61  NH1 ARG A   5     -19.851  -6.530 -10.379  1.00  0.00    -0.270 NA
ATOM     62  H   UNL     1     -19.046  -6.231 -10.973  1.00  0.00     0.191 HD
ENDBRANCH  56  61
ENDBRANCH  54  55
ENDBRANCH  53  54
ENDBRANCH  52  53
ENDBRANCH  36  52
ENDBRANCH  33  36
ENDBRANCH  31  32
BRANCH  31  63
ATOM     63  CB  LEU A   4     -19.640 -11.681  -1.542  1.00  0.00     0.038 C 
BRANCH  63  64
ATOM     64  CG  LEU A   4     -20.290 -12.946  -0.953  1.00  0.00    -0.015 C 
ATOM     65  CD1 LEU A   4     -19.610 -14.226  -1.466  1.00  0.00     0.007 C 
ATOM     66  CD2 LEU A   4     -20.193 -12.891   0.577  1.00  0.00     0.007 C 
ENDBRANCH  63  64
ENDBRANCH  31  63
ENDBRANCH   3  31
TORSDOF 26
