REMARK SMILES CC[C@H](C)[C@H](NC(=O)[C@@H](N)CO)C(=O)N[C@@H](CC(C)C)C(=O)N[C@@H](C)C(=O)N[C@@H](CCCNC(=N)N)C(=O)N[C@@H](CC(N)=O)C(=O)O
REMARK SMILES IDX 21 1 22 2 23 3 16 5 15 6 13 7 14 8 5 10 6 11 7 12 8 13 9 15
REMARK SMILES IDX 10 16 11 19 12 20 3 22 4 23 2 24 1 25 17 26 18 27 19 28
REMARK SMILES IDX 20 29 24 30 25 31 26 32 28 33 27 34 29 36 37 37 39 38 38 39
REMARK SMILES IDX 40 41 45 42 46 43 47 44 41 46 42 47 43 48 44 49 30 52 31 53
REMARK SMILES IDX 32 54 33 55 34 56 36 57 35 61
REMARK H PARENT 23 4 15 9 6 14 10 17 10 18 12 21 28 35 39 40 47 45 43 50 43 51
REMARK H PARENT 33 58 36 59 36 60 35 62
ROOT
ATOM      1  C   LEU A   3     -18.384 -10.556  -4.863  1.00  0.00     0.243 C 
ATOM      2  O   LEU A   3     -18.758 -11.406  -5.715  1.00  0.00    -0.273 OA
ATOM      3  N   ALA A   4     -18.823 -10.621  -3.508  1.00  0.00    -0.343 N 
ATOM      4  H   UNL     1     -18.479  -9.899  -2.834  1.00  0.00     0.164 HD
ENDROOT
BRANCH   1   5
ATOM      5  CA  LEU A   3     -17.451  -9.460  -5.245  1.00  0.00     0.171 C 
BRANCH   5   6
ATOM      6  N   LEU A   3     -16.209 -10.025  -5.735  1.00  0.00    -0.343 N 
ATOM      7  C   ILE A   2     -15.251 -10.554  -4.827  1.00  0.00     0.243 C 
ATOM      8  O   ILE A   2     -15.474 -10.545  -3.585  1.00  0.00    -0.273 OA
ATOM      9  H   UNL     1     -16.028 -10.073  -6.763  1.00  0.00     0.164 HD
BRANCH   7  10
ATOM     10  CA  ILE A   2     -13.967 -11.097  -5.369  1.00  0.00     0.174 C 
BRANCH  10  11
ATOM     11  N   ILE A   2     -12.843 -10.489  -4.671  1.00  0.00    -0.343 N 
ATOM     12  C   SER A   1     -12.603  -9.084  -4.713  1.00  0.00     0.239 C 
ATOM     13  O   SER A   1     -13.373  -8.320  -5.359  1.00  0.00    -0.273 OA
ATOM     14  H   UNL     1     -12.167 -11.087  -4.146  1.00  0.00     0.164 HD
BRANCH  12  15
ATOM     15  CA  SER A   1     -11.441  -8.533  -3.936  1.00  0.00     0.167 C 
BRANCH  15  16
ATOM     16  N   SER A   1     -10.851  -7.374  -4.607  1.00  0.00    -0.318 NA
ATOM     17  H   UNL     1     -11.582  -6.648  -4.791  1.00  0.00     0.119 HD
ATOM     18  H   UNL     1     -10.480  -7.679  -5.536  1.00  0.00     0.119 HD
ENDBRANCH  15  16
BRANCH  15  19
ATOM     19  CB  SER A   1     -11.842  -8.202  -2.487  1.00  0.00     0.184 C 
BRANCH  19  20
ATOM     20  OG  SER A   1     -12.057  -6.826  -2.327  1.00  0.00    -0.394 OA
ATOM     21  H   UNL     1     -12.317  -6.694  -1.378  1.00  0.00     0.210 HD
ENDBRANCH  19  20
ENDBRANCH  15  19
ENDBRANCH  12  15
ENDBRANCH  10  11
BRANCH  10  22
ATOM     22  CB  ILE A   2     -13.948 -12.647  -5.294  1.00  0.00     0.018 C 
ATOM     23  CG1 ILE A   2     -12.857 -13.211  -6.212  1.00  0.00     0.010 C 
BRANCH  22  24
ATOM     24  CG2 ILE A   2     -13.791 -13.219  -3.856  1.00  0.00     0.002 C 
ATOM     25  CD1 ILE A   2     -14.380 -14.624  -3.721  1.00  0.00     0.004 C 
ENDBRANCH  22  24
ENDBRANCH  10  22
ENDBRANCH   7  10
ENDBRANCH   5   6
BRANCH   5  26
ATOM     26  CB  LEU A   3     -18.098  -8.529  -6.277  1.00  0.00     0.038 C 
BRANCH  26  27
ATOM     27  CG  LEU A   3     -17.543  -7.093  -6.223  1.00  0.00    -0.015 C 
ATOM     28  CD1 LEU A   3     -18.189  -6.264  -7.337  1.00  0.00     0.007 C 
ATOM     29  CD2 LEU A   3     -17.813  -6.425  -4.860  1.00  0.00     0.007 C 
ENDBRANCH  26  27
ENDBRANCH   5  26
ENDBRANCH   1   5
BRANCH   3  30
ATOM     30  CA  ALA A   4     -19.827 -11.561  -3.046  1.00  0.00     0.168 C 
ATOM     31  CB  ALA A   4     -19.717 -11.727  -1.532  1.00  0.00     0.041 C 
BRANCH  30  32
ATOM     32  C   ALA A   4     -21.167 -11.054  -3.465  1.00  0.00     0.242 C 
ATOM     33  N   ARG A   5     -21.503 -11.138  -4.843  1.00  0.00    -0.343 N 
ATOM     34  O   ALA A   4     -21.969 -10.540  -2.637  1.00  0.00    -0.273 OA
ATOM     35  H   UNL     1     -21.067 -11.905  -5.401  1.00  0.00     0.164 HD
BRANCH  33  36
ATOM     36  CA  ARG A   5     -22.679 -10.496  -5.388  1.00  0.00     0.171 C 
BRANCH  36  37
ATOM     37  C   ARG A   5     -23.897 -11.194  -4.885  1.00  0.00     0.243 C 
ATOM     38  N   ASN A   6     -24.982 -10.402  -4.433  1.00  0.00    -0.341 N 
ATOM     39  O   ARG A   5     -23.965 -12.454  -4.868  1.00  0.00    -0.273 OA
ATOM     40  H   UNL     1     -24.931  -9.364  -4.552  1.00  0.00     0.164 HD
BRANCH  38  41
ATOM     41  CA  ASN A   6     -26.189 -10.994  -3.883  1.00  0.00     0.201 C 
BRANCH  41  42
ATOM     42  C   ASN A   6     -27.053 -11.522  -4.997  1.00  0.00     0.326 C 
ATOM     43  O   ASN A   6     -27.151 -10.892  -6.084  1.00  0.00    -0.250 OA
BRANCH  42  44
ATOM     44  OXT ASN A   6     -27.773 -12.698  -4.811  1.00  0.00    -0.480 OA
ATOM     45  H   UNL     1     -28.370 -13.063  -5.543  1.00  0.00     0.296 HD
ENDBRANCH  42  44
ENDBRANCH  41  42
BRANCH  41  46
ATOM     46  CB  ASN A   6     -26.930  -9.934  -3.062  1.00  0.00     0.136 C 
BRANCH  46  47
ATOM     47  CG  ASN A   6     -28.019 -10.549  -2.252  1.00  0.00     0.220 C 
ATOM     48  ND2 ASN A   6     -27.701 -11.241  -1.053  1.00  0.00    -0.370 N 
ATOM     49  OD1 ASN A   6     -29.213 -10.484  -2.643  1.00  0.00    -0.275 OA
ATOM     50  H   UNL     1     -26.713 -11.314  -0.724  1.00  0.00     0.159 HD
ATOM     51  H   UNL     1     -28.456 -11.688  -0.487  1.00  0.00     0.159 HD
ENDBRANCH  46  47
ENDBRANCH  41  46
ENDBRANCH  38  41
ENDBRANCH  36  37
BRANCH  36  52
ATOM     52  CB  ARG A   5     -22.649 -10.518  -6.916  1.00  0.00     0.037 C 
BRANCH  52  53
ATOM     53  CG  ARG A   5     -21.461  -9.719  -7.459  1.00  0.00     0.024 C 
BRANCH  53  54
ATOM     54  CD  ARG A   5     -21.602  -9.480  -8.963  1.00  0.00     0.116 C 
BRANCH  54  55
ATOM     55  NE  ARG A   5     -21.190  -8.117  -9.282  1.00  0.00    -0.357 N 
ATOM     56  CZ  ARG A   5     -20.075  -7.775 -10.105  1.00  0.00     0.185 C 
ATOM     57  NH2 ARG A   5     -19.200  -8.774 -10.616  1.00  0.00    -0.370 N 
ATOM     58  H   UNL     1     -21.775  -7.342  -8.893  1.00  0.00     0.163 HD
ATOM     59  H   UNL     1     -18.494  -8.517 -11.342  1.00  0.00     0.159 HD
ATOM     60  H   UNL     1     -19.097  -9.710 -10.171  1.00  0.00     0.159 HD
BRANCH  56  61
ATOM     61  NH1 ARG A   5     -19.847  -6.533 -10.392  1.00  0.00    -0.270 NA
ATOM     62  H   UNL     1     -20.457  -5.762 -10.039  1.00  0.00     0.191 HD
ENDBRANCH  56  61
ENDBRANCH  54  55
ENDBRANCH  53  54
ENDBRANCH  52  53
ENDBRANCH  36  52
ENDBRANCH  33  36
ENDBRANCH  30  32
ENDBRANCH   3  30
TORSDOF 26
