REMARK SMILES CC(C)C[C@H](NC(=O)[C@H](C)NC(=O)[C@@H](N)CO)C(=O)N[C@H](C(=O)N[C@@H](CCCNC(=N)N)C(=O)N[C@@H](CC(N)=O)C(=O)O)[C@@H](C)O
REMARK SMILES IDX 18 1 19 2 20 3 5 5 6 6 7 7 8 8 9 10 10 11 11 12 12 13 13 14
REMARK SMILES IDX 14 16 15 17 16 20 17 21 4 23 2 24 1 25 3 26 21 27 22 28
REMARK SMILES IDX 24 29 23 30 25 32 33 33 35 34 34 35 36 37 41 38 42 39 43 40
REMARK SMILES IDX 37 42 38 43 39 44 40 45 26 48 27 49 28 50 29 51 30 52 32 53
REMARK SMILES IDX 31 57 44 59 45 60 46 61
REMARK H PARENT 20 4 6 9 11 15 15 18 15 19 17 22 24 31 35 36 43 41 39 46 39 47
REMARK H PARENT 29 54 32 55 32 56 31 58 46 62
ROOT
ATOM      1  C   LEU A   3     -18.381 -10.552  -4.867  1.00  0.00     0.243 C 
ATOM      2  O   LEU A   3     -18.749 -11.411  -5.714  1.00  0.00    -0.273 OA
ATOM      3  N   THR A   4     -18.847 -10.588  -3.523  1.00  0.00    -0.340 N 
ATOM      4  H   UNL     1     -18.614  -9.786  -2.893  1.00  0.00     0.164 HD
ENDROOT
BRANCH   1   5
ATOM      5  CA  LEU A   3     -17.447  -9.460  -5.248  1.00  0.00     0.171 C 
BRANCH   5   6
ATOM      6  N   LEU A   3     -16.207 -10.025  -5.741  1.00  0.00    -0.343 N 
ATOM      7  C   ALA A   2     -15.248 -10.566  -4.840  1.00  0.00     0.242 C 
ATOM      8  O   ALA A   2     -15.468 -10.585  -3.597  1.00  0.00    -0.273 OA
ATOM      9  H   UNL     1     -16.014 -10.045  -6.768  1.00  0.00     0.164 HD
BRANCH   7  10
ATOM     10  CA  ALA A   2     -13.963 -11.088  -5.392  1.00  0.00     0.168 C 
ATOM     11  CB  ALA A   2     -13.925 -12.609  -5.286  1.00  0.00     0.041 C 
BRANCH  10  12
ATOM     12  N   ALA A   2     -12.850 -10.488  -4.674  1.00  0.00    -0.343 N 
ATOM     13  C   SER A   1     -12.604  -9.084  -4.714  1.00  0.00     0.239 C 
ATOM     14  O   SER A   1     -13.370  -8.317  -5.360  1.00  0.00    -0.273 OA
ATOM     15  H   UNL     1     -12.216 -11.094  -4.104  1.00  0.00     0.164 HD
BRANCH  13  16
ATOM     16  CA  SER A   1     -11.442  -8.536  -3.936  1.00  0.00     0.167 C 
BRANCH  16  17
ATOM     17  N   SER A   1     -10.849  -7.377  -4.606  1.00  0.00    -0.318 NA
ATOM     18  H   UNL     1     -10.477  -7.683  -5.535  1.00  0.00     0.119 HD
ATOM     19  H   UNL     1     -11.578  -6.650  -4.790  1.00  0.00     0.119 HD
ENDBRANCH  16  17
BRANCH  16  20
ATOM     20  CB  SER A   1     -11.843  -8.203  -2.486  1.00  0.00     0.184 C 
BRANCH  20  21
ATOM     21  OG  SER A   1     -12.057  -6.826  -2.328  1.00  0.00    -0.394 OA
ATOM     22  H   UNL     1     -12.317  -6.694  -1.379  1.00  0.00     0.210 HD
ENDBRANCH  20  21
ENDBRANCH  16  20
ENDBRANCH  13  16
ENDBRANCH  10  12
ENDBRANCH   7  10
ENDBRANCH   5   6
BRANCH   5  23
ATOM     23  CB  LEU A   3     -18.096  -8.527  -6.277  1.00  0.00     0.038 C 
BRANCH  23  24
ATOM     24  CG  LEU A   3     -17.542  -7.091  -6.223  1.00  0.00    -0.015 C 
ATOM     25  CD1 LEU A   3     -18.188  -6.263  -7.336  1.00  0.00     0.007 C 
ATOM     26  CD2 LEU A   3     -17.813  -6.425  -4.860  1.00  0.00     0.007 C 
ENDBRANCH  23  24
ENDBRANCH   5  23
ENDBRANCH   1   5
BRANCH   3  27
ATOM     27  CA  THR A   4     -19.816 -11.555  -3.043  1.00  0.00     0.200 C 
BRANCH  27  28
ATOM     28  C   THR A   4     -21.169 -11.067  -3.458  1.00  0.00     0.245 C 
ATOM     29  N   ARG A   5     -21.503 -11.144  -4.838  1.00  0.00    -0.342 N 
ATOM     30  O   THR A   4     -21.970 -10.550  -2.631  1.00  0.00    -0.273 OA
ATOM     31  H   UNL     1     -21.060 -11.904  -5.401  1.00  0.00     0.164 HD
BRANCH  29  32
ATOM     32  CA  ARG A   5     -22.677 -10.498  -5.385  1.00  0.00     0.171 C 
BRANCH  32  33
ATOM     33  C   ARG A   5     -23.896 -11.195  -4.884  1.00  0.00     0.243 C 
ATOM     34  N   ASN A   6     -24.982 -10.402  -4.433  1.00  0.00    -0.341 N 
ATOM     35  O   ARG A   5     -23.966 -12.455  -4.867  1.00  0.00    -0.273 OA
ATOM     36  H   UNL     1     -24.930  -9.364  -4.552  1.00  0.00     0.164 HD
BRANCH  34  37
ATOM     37  CA  ASN A   6     -26.189 -10.994  -3.883  1.00  0.00     0.201 C 
BRANCH  37  38
ATOM     38  C   ASN A   6     -27.052 -11.522  -4.997  1.00  0.00     0.326 C 
ATOM     39  O   ASN A   6     -27.151 -10.892  -6.084  1.00  0.00    -0.250 OA
BRANCH  38  40
ATOM     40  OXT ASN A   6     -27.773 -12.698  -4.811  1.00  0.00    -0.480 OA
ATOM     41  H   UNL     1     -28.370 -13.063  -5.543  1.00  0.00     0.296 HD
ENDBRANCH  38  40
ENDBRANCH  37  38
BRANCH  37  42
ATOM     42  CB  ASN A   6     -26.929  -9.934  -3.062  1.00  0.00     0.136 C 
BRANCH  42  43
ATOM     43  CG  ASN A   6     -28.019 -10.549  -2.252  1.00  0.00     0.220 C 
ATOM     44  ND2 ASN A   6     -27.701 -11.241  -1.053  1.00  0.00    -0.370 N 
ATOM     45  OD1 ASN A   6     -29.213 -10.483  -2.643  1.00  0.00    -0.275 OA
ATOM     46  H   UNL     1     -26.713 -11.314  -0.724  1.00  0.00     0.159 HD
ATOM     47  H   UNL     1     -28.456 -11.688  -0.487  1.00  0.00     0.159 HD
ENDBRANCH  42  43
ENDBRANCH  37  42
ENDBRANCH  34  37
ENDBRANCH  32  33
BRANCH  32  48
ATOM     48  CB  ARG A   5     -22.647 -10.519  -6.914  1.00  0.00     0.037 C 
BRANCH  48  49
ATOM     49  CG  ARG A   5     -21.461  -9.717  -7.458  1.00  0.00     0.024 C 
BRANCH  49  50
ATOM     50  CD  ARG A   5     -21.602  -9.477  -8.962  1.00  0.00     0.116 C 
BRANCH  50  51
ATOM     51  NE  ARG A   5     -21.186  -8.116  -9.283  1.00  0.00    -0.357 N 
ATOM     52  CZ  ARG A   5     -20.073  -7.777 -10.106  1.00  0.00     0.185 C 
ATOM     53  NH2 ARG A   5     -19.198  -8.780 -10.616  1.00  0.00    -0.370 N 
ATOM     54  H   UNL     1     -21.765  -7.335  -8.898  1.00  0.00     0.163 HD
ATOM     55  H   UNL     1     -18.499  -8.537 -11.353  1.00  0.00     0.159 HD
ATOM     56  H   UNL     1     -19.093  -9.712 -10.163  1.00  0.00     0.159 HD
BRANCH  52  57
ATOM     57  NH1 ARG A   5     -19.856  -6.532 -10.386  1.00  0.00    -0.270 NA
ATOM     58  H   UNL     1     -19.051  -6.233 -10.981  1.00  0.00     0.191 HD
ENDBRANCH  52  57
ENDBRANCH  50  51
ENDBRANCH  49  50
ENDBRANCH  48  49
ENDBRANCH  32  48
ENDBRANCH  29  32
ENDBRANCH  27  28
BRANCH  27  59
ATOM     59  CB  THR A   4     -19.652 -11.714  -1.512  1.00  0.00     0.143 C 
ATOM     60  CG2 THR A   4     -20.359 -12.958  -0.974  1.00  0.00     0.041 C 
BRANCH  59  61
ATOM     61  OG1 THR A   4     -18.290 -11.776  -1.160  1.00  0.00    -0.391 OA
ATOM     62  H   UNL     1     -17.888 -12.545  -1.644  1.00  0.00     0.211 HD
ENDBRANCH  59  61
ENDBRANCH  27  59
ENDBRANCH   3  27
TORSDOF 26
