REMARK SMILES CC(C)C[C@H](NC(=O)[C@H](CO)NC(=O)[C@H](Cc1ccccc1)NC(=O)[C@@H](N)CO)C(=O)N[C@@H](CCCNC(=N)N)C(=O)N[C@@H](CC(N)=O)C(=O)O
REMARK SMILES IDX 7 1 8 2 6 3 9 5 12 6 13 7 14 8 15 10 23 11 24 12 25 13 26 15
REMARK SMILES IDX 27 16 28 19 29 20 16 22 17 23 18 24 22 25 19 26 21 27 20 28
REMARK SMILES IDX 10 29 11 30 5 32 30 33 32 34 31 35 33 37 41 38 43 39 42 40
REMARK SMILES IDX 44 42 49 43 50 44 51 45 45 47 46 48 47 49 48 50 34 53 35 54
REMARK SMILES IDX 36 55 37 56 38 57 40 58 39 62 4 64 2 65 1 66 3 67
REMARK H PARENT 6 4 12 9 23 14 27 17 27 18 29 21 11 31 32 36 43 41 51 46 47 51
REMARK H PARENT 47 52 37 59 40 60 40 61 39 63
ROOT
ATOM      1  C   SER A   3     -18.394 -10.517  -4.874  1.00  0.00     0.245 C 
ATOM      2  O   SER A   3     -18.751 -11.388  -5.714  1.00  0.00    -0.273 OA
ATOM      3  N   LEU A   4     -18.844 -10.566  -3.526  1.00  0.00    -0.342 N 
ATOM      4  H   UNL     1     -18.570  -9.787  -2.883  1.00  0.00     0.164 HD
ENDROOT
BRANCH   1   5
ATOM      5  CA  SER A   3     -17.454  -9.426  -5.261  1.00  0.00     0.197 C 
BRANCH   5   6
ATOM      6  N   SER A   3     -16.218 -10.016  -5.731  1.00  0.00    -0.340 N 
ATOM      7  C   PHE A   2     -15.258 -10.545  -4.825  1.00  0.00     0.243 C 
ATOM      8  O   PHE A   2     -15.481 -10.572  -3.583  1.00  0.00    -0.273 OA
ATOM      9  H   UNL     1     -16.044 -10.080  -6.761  1.00  0.00     0.164 HD
BRANCH   7  10
ATOM     10  CA  PHE A   2     -13.978 -11.062  -5.382  1.00  0.00     0.175 C 
BRANCH  10  11
ATOM     11  N   PHE A   2     -12.858 -10.484  -4.660  1.00  0.00    -0.343 N 
ATOM     12  C   SER A   1     -12.602  -9.082  -4.707  1.00  0.00     0.239 C 
ATOM     13  O   SER A   1     -13.364  -8.313  -5.356  1.00  0.00    -0.273 OA
ATOM     14  H   UNL     1     -12.222 -11.101  -4.103  1.00  0.00     0.164 HD
BRANCH  12  15
ATOM     15  CA  SER A   1     -11.438  -8.537  -3.932  1.00  0.00     0.167 C 
BRANCH  15  16
ATOM     16  N   SER A   1     -10.845  -7.379  -4.604  1.00  0.00    -0.318 NA
ATOM     17  H   UNL     1     -11.573  -6.650  -4.787  1.00  0.00     0.119 HD
ATOM     18  H   UNL     1     -10.475  -7.686  -5.533  1.00  0.00     0.119 HD
ENDBRANCH  15  16
BRANCH  15  19
ATOM     19  CB  SER A   1     -11.839  -8.203  -2.483  1.00  0.00     0.184 C 
BRANCH  19  20
ATOM     20  OG  SER A   1     -12.058  -6.826  -2.327  1.00  0.00    -0.394 OA
ATOM     21  H   UNL     1     -12.315  -6.693  -1.378  1.00  0.00     0.210 HD
ENDBRANCH  19  20
ENDBRANCH  15  19
ENDBRANCH  12  15
ENDBRANCH  10  11
BRANCH  10  22
ATOM     22  CB  PHE A   2     -13.965 -12.597  -5.325  1.00  0.00     0.070 C 
BRANCH  22  23
ATOM     23  CG  PHE A   2     -12.883 -13.200  -6.183  1.00  0.00    -0.045 A 
ATOM     24  CD1 PHE A   2     -12.723 -12.807  -7.526  1.00  0.00     0.004 A 
ATOM     25  CD2 PHE A   2     -12.091 -14.244  -5.682  1.00  0.00     0.004 A 
ATOM     26  CE1 PHE A   2     -11.747 -13.399  -8.324  1.00  0.00     0.000 A 
ATOM     27  CE2 PHE A   2     -11.133 -14.854  -6.496  1.00  0.00     0.000 A 
ATOM     28  CZ  PHE A   2     -10.955 -14.424  -7.811  1.00  0.00     0.000 A 
ENDBRANCH  22  23
ENDBRANCH  10  22
ENDBRANCH   7  10
ENDBRANCH   5   6
BRANCH   5  29
ATOM     29  CB  SER A   3     -18.058  -8.521  -6.333  1.00  0.00     0.191 C 
BRANCH  29  30
ATOM     30  OG  SER A   3     -19.199  -7.868  -5.842  1.00  0.00    -0.394 OA
ATOM     31  H   UNL     1     -18.878  -7.142  -5.245  1.00  0.00     0.210 HD
ENDBRANCH  29  30
ENDBRANCH   5  29
ENDBRANCH   1   5
BRANCH   3  32
ATOM     32  CA  LEU A   4     -19.812 -11.536  -3.055  1.00  0.00     0.171 C 
BRANCH  32  33
ATOM     33  C   LEU A   4     -21.168 -11.059  -3.464  1.00  0.00     0.243 C 
ATOM     34  N   ARG A   5     -21.505 -11.141  -4.842  1.00  0.00    -0.343 N 
ATOM     35  O   LEU A   4     -21.971 -10.549  -2.634  1.00  0.00    -0.273 OA
ATOM     36  H   UNL     1     -21.063 -11.902  -5.404  1.00  0.00     0.164 HD
BRANCH  34  37
ATOM     37  CA  ARG A   5     -22.680 -10.498  -5.387  1.00  0.00     0.171 C 
BRANCH  37  38
ATOM     38  C   ARG A   5     -23.898 -11.195  -4.885  1.00  0.00     0.243 C 
ATOM     39  N   ASN A   6     -24.982 -10.402  -4.433  1.00  0.00    -0.341 N 
ATOM     40  O   ARG A   5     -23.966 -12.455  -4.867  1.00  0.00    -0.273 OA
ATOM     41  H   UNL     1     -24.931  -9.364  -4.552  1.00  0.00     0.164 HD
BRANCH  39  42
ATOM     42  CA  ASN A   6     -26.190 -10.994  -3.883  1.00  0.00     0.201 C 
BRANCH  42  43
ATOM     43  C   ASN A   6     -27.053 -11.522  -4.997  1.00  0.00     0.326 C 
ATOM     44  O   ASN A   6     -27.151 -10.892  -6.084  1.00  0.00    -0.250 OA
BRANCH  43  45
ATOM     45  OXT ASN A   6     -27.774 -12.698  -4.811  1.00  0.00    -0.480 OA
ATOM     46  H   UNL     1     -28.370 -13.063  -5.543  1.00  0.00     0.296 HD
ENDBRANCH  43  45
ENDBRANCH  42  43
BRANCH  42  47
ATOM     47  CB  ASN A   6     -26.930  -9.934  -3.062  1.00  0.00     0.136 C 
BRANCH  47  48
ATOM     48  CG  ASN A   6     -28.019 -10.549  -2.252  1.00  0.00     0.220 C 
ATOM     49  ND2 ASN A   6     -27.701 -11.241  -1.053  1.00  0.00    -0.370 N 
ATOM     50  OD1 ASN A   6     -29.213 -10.484  -2.642  1.00  0.00    -0.275 OA
ATOM     51  H   UNL     1     -28.456 -11.688  -0.487  1.00  0.00     0.159 HD
ATOM     52  H   UNL     1     -26.713 -11.314  -0.724  1.00  0.00     0.159 HD
ENDBRANCH  47  48
ENDBRANCH  42  47
ENDBRANCH  39  42
ENDBRANCH  37  38
BRANCH  37  53
ATOM     53  CB  ARG A   5     -22.651 -10.519  -6.916  1.00  0.00     0.037 C 
BRANCH  53  54
ATOM     54  CG  ARG A   5     -21.464  -9.718  -7.459  1.00  0.00     0.024 C 
BRANCH  54  55
ATOM     55  CD  ARG A   5     -21.603  -9.479  -8.964  1.00  0.00     0.116 C 
BRANCH  55  56
ATOM     56  NE  ARG A   5     -21.186  -8.117  -9.284  1.00  0.00    -0.357 N 
ATOM     57  CZ  ARG A   5     -20.070  -7.777 -10.103  1.00  0.00     0.185 C 
ATOM     58  NH2 ARG A   5     -19.199  -8.781 -10.618  1.00  0.00    -0.370 N 
ATOM     59  H   UNL     1     -21.768  -7.336  -8.902  1.00  0.00     0.163 HD
ATOM     60  H   UNL     1     -18.500  -8.537 -11.355  1.00  0.00     0.159 HD
ATOM     61  H   UNL     1     -19.098  -9.716 -10.170  1.00  0.00     0.159 HD
BRANCH  57  62
ATOM     62  NH1 ARG A   5     -19.850  -6.532 -10.379  1.00  0.00    -0.270 NA
ATOM     63  H   UNL     1     -19.045  -6.233 -10.973  1.00  0.00     0.191 HD
ENDBRANCH  57  62
ENDBRANCH  55  56
ENDBRANCH  54  55
ENDBRANCH  53  54
ENDBRANCH  37  53
ENDBRANCH  34  37
ENDBRANCH  32  33
BRANCH  32  64
ATOM     64  CB  LEU A   4     -19.650 -11.688  -1.535  1.00  0.00     0.038 C 
BRANCH  64  65
ATOM     65  CG  LEU A   4     -20.294 -12.953  -0.947  1.00  0.00    -0.015 C 
ATOM     66  CD1 LEU A   4     -19.611 -14.230  -1.463  1.00  0.00     0.007 C 
ATOM     67  CD2 LEU A   4     -20.194 -12.897   0.582  1.00  0.00     0.007 C 
ENDBRANCH  64  65
ENDBRANCH  32  64
ENDBRANCH   3  32
TORSDOF 28
