REMARK SMILES CC(C)C[C@H](NC(=O)[C@H](Cc1ccccc1)NC(=O)[C@@H](N)CO)C(=O)N[C@@H](CCCCN)C(=O)N[C@@H](CCCCN)C(=O)N[C@@H](CC(N)=O)C(=O)O
REMARK SMILES IDX 24 1 25 2 26 3 5 5 6 6 7 7 8 8 9 10 17 11 18 12 19 13 20 15
REMARK SMILES IDX 21 16 22 19 23 20 10 22 11 23 12 24 16 25 13 26 15 27 14 28
REMARK SMILES IDX 4 29 2 30 1 31 3 32 27 33 33 34 35 35 34 36 36 38 42 39
REMARK SMILES IDX 44 40 43 41 45 43 50 44 51 45 52 46 46 48 47 49 48 50 49 51
REMARK SMILES IDX 37 54 38 55 39 56 40 57 41 58 28 61 29 62 30 63 31 64 32 65
REMARK H PARENT 26 4 6 9 17 14 21 17 21 18 23 21 35 37 44 42 52 47 48 52 48 53
REMARK H PARENT 41 59 41 60 32 66 32 67
ROOT
ATOM      1  C   LEU A   3     -18.384 -10.547  -4.864  1.00  0.00     0.243 C 
ATOM      2  O   LEU A   3     -18.748 -11.407  -5.711  1.00  0.00    -0.273 OA
ATOM      3  N   LYS A   4     -18.847 -10.585  -3.520  1.00  0.00    -0.343 N 
ATOM      4  H   UNL     1     -18.589  -9.800  -2.877  1.00  0.00     0.164 HD
ENDROOT
BRANCH   1   5
ATOM      5  CA  LEU A   3     -17.453  -9.453  -5.242  1.00  0.00     0.171 C 
BRANCH   5   6
ATOM      6  N   LEU A   3     -16.214 -10.019  -5.731  1.00  0.00    -0.343 N 
ATOM      7  C   PHE A   2     -15.252 -10.547  -4.827  1.00  0.00     0.243 C 
ATOM      8  O   PHE A   2     -15.473 -10.577  -3.585  1.00  0.00    -0.273 OA
ATOM      9  H   UNL     1     -16.037 -10.067  -6.760  1.00  0.00     0.164 HD
BRANCH   7  10
ATOM     10  CA  PHE A   2     -13.974 -11.061  -5.385  1.00  0.00     0.175 C 
BRANCH  10  11
ATOM     11  N   PHE A   2     -12.855 -10.485  -4.659  1.00  0.00    -0.343 N 
ATOM     12  C   SER A   1     -12.596  -9.083  -4.702  1.00  0.00     0.239 C 
ATOM     13  O   SER A   1     -13.355  -8.308  -5.349  1.00  0.00    -0.273 OA
ATOM     14  H   UNL     1     -12.220 -11.103  -4.104  1.00  0.00     0.164 HD
BRANCH  12  15
ATOM     15  CA  SER A   1     -11.428  -8.546  -3.931  1.00  0.00     0.167 C 
BRANCH  15  16
ATOM     16  N   SER A   1     -10.863  -7.380  -4.610  1.00  0.00    -0.318 NA
ATOM     17  H   UNL     1     -10.541  -7.676  -5.560  1.00  0.00     0.119 HD
ATOM     18  H   UNL     1     -10.001  -7.089  -4.094  1.00  0.00     0.119 HD
ENDBRANCH  15  16
BRANCH  15  19
ATOM     19  CB  SER A   1     -11.840  -8.203  -2.486  1.00  0.00     0.184 C 
BRANCH  19  20
ATOM     20  OG  SER A   1     -12.064  -6.827  -2.332  1.00  0.00    -0.394 OA
ATOM     21  H   UNL     1     -12.954  -6.643  -2.733  1.00  0.00     0.210 HD
ENDBRANCH  19  20
ENDBRANCH  15  19
ENDBRANCH  12  15
ENDBRANCH  10  11
BRANCH  10  22
ATOM     22  CB  PHE A   2     -13.963 -12.597  -5.327  1.00  0.00     0.070 C 
BRANCH  22  23
ATOM     23  CG  PHE A   2     -12.882 -13.200  -6.184  1.00  0.00    -0.045 A 
ATOM     24  CD1 PHE A   2     -12.722 -12.808  -7.527  1.00  0.00     0.004 A 
ATOM     25  CD2 PHE A   2     -12.091 -14.244  -5.683  1.00  0.00     0.004 A 
ATOM     26  CE1 PHE A   2     -11.747 -13.400  -8.325  1.00  0.00     0.000 A 
ATOM     27  CE2 PHE A   2     -11.133 -14.854  -6.496  1.00  0.00     0.000 A 
ATOM     28  CZ  PHE A   2     -10.954 -14.425  -7.812  1.00  0.00     0.000 A 
ENDBRANCH  22  23
ENDBRANCH  10  22
ENDBRANCH   7  10
ENDBRANCH   5   6
BRANCH   5  29
ATOM     29  CB  LEU A   3     -18.100  -8.525  -6.275  1.00  0.00     0.038 C 
BRANCH  29  30
ATOM     30  CG  LEU A   3     -17.544  -7.090  -6.226  1.00  0.00    -0.015 C 
ATOM     31  CD1 LEU A   3     -18.197  -6.263  -7.337  1.00  0.00     0.007 C 
ATOM     32  CD2 LEU A   3     -17.807  -6.421  -4.862  1.00  0.00     0.007 C 
ENDBRANCH  29  30
ENDBRANCH   5  29
ENDBRANCH   1   5
BRANCH   3  33
ATOM     33  CA  LYS A   4     -19.823 -11.545  -3.052  1.00  0.00     0.171 C 
BRANCH  33  34
ATOM     34  C   LYS A   4     -21.173 -11.056  -3.466  1.00  0.00     0.243 C 
ATOM     35  N   LYS A   5     -21.506 -11.132  -4.846  1.00  0.00    -0.343 N 
ATOM     36  O   LYS A   4     -21.976 -10.546  -2.637  1.00  0.00    -0.273 OA
ATOM     37  H   UNL     1     -21.064 -11.894  -5.407  1.00  0.00     0.164 HD
BRANCH  35  38
ATOM     38  CA  LYS A   5     -22.680 -10.487  -5.395  1.00  0.00     0.171 C 
BRANCH  38  39
ATOM     39  C   LYS A   5     -23.898 -11.189  -4.893  1.00  0.00     0.243 C 
ATOM     40  N   ASN A   6     -24.982 -10.399  -4.435  1.00  0.00    -0.341 N 
ATOM     41  O   LYS A   5     -23.963 -12.449  -4.872  1.00  0.00    -0.273 OA
ATOM     42  H   UNL     1     -24.932  -9.360  -4.551  1.00  0.00     0.164 HD
BRANCH  40  43
ATOM     43  CA  ASN A   6     -26.188 -10.993  -3.884  1.00  0.00     0.201 C 
BRANCH  43  44
ATOM     44  C   ASN A   6     -27.052 -11.522  -4.997  1.00  0.00     0.326 C 
ATOM     45  O   ASN A   6     -27.152 -10.892  -6.084  1.00  0.00    -0.250 OA
BRANCH  44  46
ATOM     46  OXT ASN A   6     -27.771 -12.698  -4.810  1.00  0.00    -0.480 OA
ATOM     47  H   UNL     1     -28.369 -13.064  -5.542  1.00  0.00     0.296 HD
ENDBRANCH  44  46
ENDBRANCH  43  44
BRANCH  43  48
ATOM     48  CB  ASN A   6     -26.929  -9.934  -3.062  1.00  0.00     0.136 C 
BRANCH  48  49
ATOM     49  CG  ASN A   6     -28.019 -10.550  -2.252  1.00  0.00     0.220 C 
ATOM     50  ND2 ASN A   6     -27.701 -11.242  -1.054  1.00  0.00    -0.370 N 
ATOM     51  OD1 ASN A   6     -29.213 -10.484  -2.643  1.00  0.00    -0.275 OA
ATOM     52  H   UNL     1     -26.712 -11.315  -0.725  1.00  0.00     0.159 HD
ATOM     53  H   UNL     1     -28.456 -11.689  -0.487  1.00  0.00     0.159 HD
ENDBRANCH  48  49
ENDBRANCH  43  48
ENDBRANCH  40  43
ENDBRANCH  38  39
BRANCH  38  54
ATOM     54  CB  LYS A   5     -22.644 -10.506  -6.928  1.00  0.00     0.035 C 
BRANCH  54  55
ATOM     55  CG  LYS A   5     -21.441  -9.719  -7.467  1.00  0.00     0.004 C 
BRANCH  55  56
ATOM     56  CD  LYS A   5     -21.513  -9.488  -8.981  1.00  0.00     0.015 C 
BRANCH  56  57
ATOM     57  CE  LYS A   5     -21.272 -10.758  -9.811  1.00  0.00     0.077 C 
BRANCH  57  58
ATOM     58  NZ  LYS A   5     -22.472 -11.589  -9.861  1.00  0.00    -0.330 NA
ATOM     59  H   UNL     1     -22.231 -12.465 -10.378  1.00  0.00     0.118 HD
ATOM     60  H   UNL     1     -23.191 -11.092 -10.436  1.00  0.00     0.118 HD
ENDBRANCH  57  58
ENDBRANCH  56  57
ENDBRANCH  55  56
ENDBRANCH  54  55
ENDBRANCH  38  54
ENDBRANCH  35  38
ENDBRANCH  33  34
BRANCH  33  61
ATOM     61  CB  LYS A   4     -19.669 -11.702  -1.529  1.00  0.00     0.035 C 
BRANCH  61  62
ATOM     62  CG  LYS A   4     -20.322 -12.967  -0.970  1.00  0.00     0.004 C 
BRANCH  62  63
ATOM     63  CD  LYS A   4     -19.606 -14.245  -1.442  1.00  0.00     0.015 C 
BRANCH  63  64
ATOM     64  CE  LYS A   4     -20.074 -15.477  -0.659  1.00  0.00     0.077 C 
BRANCH  64  65
ATOM     65  NZ  LYS A   4     -19.646 -15.403   0.736  1.00  0.00    -0.330 NA
ATOM     66  H   UNL     1     -20.048 -16.229   1.236  1.00  0.00     0.118 HD
ATOM     67  H   UNL     1     -18.607 -15.513   0.765  1.00  0.00     0.118 HD
ENDBRANCH  64  65
ENDBRANCH  63  64
ENDBRANCH  62  63
ENDBRANCH  61  62
ENDBRANCH  33  61
ENDBRANCH   3  33
TORSDOF 31
