REMARK SMILES CC(C)C[C@H](NC(=O)CNC(=O)[C@H](Cc1ccccc1)NC(=O)[C@@H](N)CO)C(=O)N[C@@H](CCCNC(=N)N)C(=O)N[C@@H](CCCNC(=N)N)C(=O)O
REMARK SMILES IDX 28 1 29 2 30 3 5 5 6 6 7 7 8 8 9 10 10 11 11 12 12 13 13 15
REMARK SMILES IDX 21 16 22 17 23 18 24 20 25 21 26 24 27 25 14 27 15 28 16 29
REMARK SMILES IDX 20 30 17 31 19 32 18 33 4 34 2 35 1 36 3 37 31 38 39 39
REMARK SMILES IDX 41 40 40 41 42 43 50 44 51 45 52 46 43 48 44 49 45 50 46 51
REMARK SMILES IDX 47 52 49 53 48 57 32 59 33 60 34 61 35 62 36 63 38 64 37 68
REMARK H PARENT 30 4 6 9 10 14 21 19 25 22 25 23 27 26 41 42 52 47 46 54 49 55
REMARK H PARENT 49 56 48 58 35 65 38 66 38 67 37 69
ROOT
ATOM      1  C   LEU A   4     -21.165 -11.055  -3.463  1.00  0.00     0.243 C 
ATOM      2  O   LEU A   4     -21.969 -10.549  -2.633  1.00  0.00    -0.273 OA
ATOM      3  N   ARG A   5     -21.504 -11.140  -4.841  1.00  0.00    -0.343 N 
ATOM      4  H   UNL     1     -21.068 -11.907  -5.400  1.00  0.00     0.164 HD
ENDROOT
BRANCH   1   5
ATOM      5  CA  LEU A   4     -19.808 -11.534  -3.055  1.00  0.00     0.171 C 
BRANCH   5   6
ATOM      6  N   LEU A   4     -18.834 -10.568  -3.531  1.00  0.00    -0.343 N 
ATOM      7  C   GLY A   3     -18.395 -10.525  -4.883  1.00  0.00     0.240 C 
ATOM      8  O   GLY A   3     -18.757 -11.400  -5.715  1.00  0.00    -0.273 OA
ATOM      9  H   UNL     1     -18.539  -9.796  -2.888  1.00  0.00     0.164 HD
BRANCH   7  10
ATOM     10  CA  GLY A   3     -17.480  -9.434  -5.302  1.00  0.00     0.216 C 
BRANCH  10  11
ATOM     11  N   GLY A   3     -16.221  -9.999  -5.736  1.00  0.00    -0.345 N 
ATOM     12  C   PHE A   2     -15.266 -10.537  -4.827  1.00  0.00     0.243 C 
ATOM     13  O   PHE A   2     -15.494 -10.567  -3.586  1.00  0.00    -0.273 OA
ATOM     14  H   UNL     1     -16.015  -9.991  -6.761  1.00  0.00     0.164 HD
BRANCH  12  15
ATOM     15  CA  PHE A   2     -13.983 -11.057  -5.381  1.00  0.00     0.175 C 
BRANCH  15  16
ATOM     16  N   PHE A   2     -12.862 -10.482  -4.656  1.00  0.00    -0.343 N 
ATOM     17  C   SER A   1     -12.598  -9.081  -4.701  1.00  0.00     0.239 C 
ATOM     18  O   SER A   1     -13.354  -8.306  -5.351  1.00  0.00    -0.273 OA
ATOM     19  H   UNL     1     -12.230 -11.102  -4.099  1.00  0.00     0.164 HD
BRANCH  17  20
ATOM     20  CA  SER A   1     -11.430  -8.546  -3.930  1.00  0.00     0.167 C 
BRANCH  20  21
ATOM     21  N   SER A   1     -10.864  -7.380  -4.607  1.00  0.00    -0.318 NA
ATOM     22  H   UNL     1     -10.000  -7.091  -4.093  1.00  0.00     0.119 HD
ATOM     23  H   UNL     1     -10.544  -7.675  -5.559  1.00  0.00     0.119 HD
ENDBRANCH  20  21
BRANCH  20  24
ATOM     24  CB  SER A   1     -11.839  -8.205  -2.484  1.00  0.00     0.184 C 
BRANCH  24  25
ATOM     25  OG  SER A   1     -12.062  -6.828  -2.339  1.00  0.00    -0.394 OA
ATOM     26  H   UNL     1     -12.320  -6.688  -1.391  1.00  0.00     0.210 HD
ENDBRANCH  24  25
ENDBRANCH  20  24
ENDBRANCH  17  20
ENDBRANCH  15  16
BRANCH  15  27
ATOM     27  CB  PHE A   2     -13.969 -12.594  -5.326  1.00  0.00     0.070 C 
BRANCH  27  28
ATOM     28  CG  PHE A   2     -12.885 -13.197  -6.183  1.00  0.00    -0.045 A 
ATOM     29  CD1 PHE A   2     -12.723 -12.805  -7.525  1.00  0.00     0.004 A 
ATOM     30  CD2 PHE A   2     -12.093 -14.242  -5.681  1.00  0.00     0.004 A 
ATOM     31  CE1 PHE A   2     -11.748 -13.398  -8.323  1.00  0.00     0.000 A 
ATOM     32  CE2 PHE A   2     -11.135 -14.852  -6.494  1.00  0.00     0.000 A 
ATOM     33  CZ  PHE A   2     -10.956 -14.423  -7.810  1.00  0.00     0.000 A 
ENDBRANCH  27  28
ENDBRANCH  15  27
ENDBRANCH  12  15
ENDBRANCH  10  11
ENDBRANCH   7  10
ENDBRANCH   5   6
BRANCH   5  34
ATOM     34  CB  LEU A   4     -19.646 -11.686  -1.535  1.00  0.00     0.038 C 
BRANCH  34  35
ATOM     35  CG  LEU A   4     -20.294 -12.951  -0.948  1.00  0.00    -0.015 C 
ATOM     36  CD1 LEU A   4     -19.611 -14.229  -1.463  1.00  0.00     0.007 C 
ATOM     37  CD2 LEU A   4     -20.195 -12.896   0.581  1.00  0.00     0.007 C 
ENDBRANCH  34  35
ENDBRANCH   5  34
ENDBRANCH   1   5
BRANCH   3  38
ATOM     38  CA  ARG A   5     -22.678 -10.495  -5.385  1.00  0.00     0.171 C 
BRANCH  38  39
ATOM     39  C   ARG A   5     -23.896 -11.194  -4.885  1.00  0.00     0.243 C 
ATOM     40  N   ARG A   6     -24.982 -10.405  -4.428  1.00  0.00    -0.341 N 
ATOM     41  O   ARG A   5     -23.963 -12.454  -4.870  1.00  0.00    -0.273 OA
ATOM     42  H   UNL     1     -24.936  -9.366  -4.543  1.00  0.00     0.164 HD
BRANCH  40  43
ATOM     43  CA  ARG A   6     -26.187 -11.007  -3.883  1.00  0.00     0.192 C 
BRANCH  43  44
ATOM     44  C   ARG A   6     -27.043 -11.530  -5.005  1.00  0.00     0.326 C 
ATOM     45  O   ARG A   6     -27.157 -10.883  -6.080  1.00  0.00    -0.250 OA
BRANCH  44  46
ATOM     46  OXT ARG A   6     -27.718 -12.738  -4.851  1.00  0.00    -0.480 OA
ATOM     47  H   UNL     1     -28.302 -13.105  -5.593  1.00  0.00     0.296 HD
ENDBRANCH  44  46
ENDBRANCH  43  44
BRANCH  43  48
ATOM     48  CB  ARG A   6     -26.931  -9.961  -3.040  1.00  0.00     0.039 C 
BRANCH  48  49
ATOM     49  CG  ARG A   6     -28.073 -10.562  -2.204  1.00  0.00     0.024 C 
BRANCH  49  50
ATOM     50  CD  ARG A   6     -27.635 -11.013  -0.801  1.00  0.00     0.116 C 
BRANCH  50  51
ATOM     51  NE  ARG A   6     -26.707 -12.142  -0.857  1.00  0.00    -0.357 N 
ATOM     52  CZ  ARG A   6     -27.112 -13.476  -1.198  1.00  0.00     0.185 C 
ATOM     53  NH2 ARG A   6     -26.126 -14.505  -1.312  1.00  0.00    -0.370 N 
ATOM     54  H   UNL     1     -25.708 -11.971  -0.604  1.00  0.00     0.163 HD
ATOM     55  H   UNL     1     -25.116 -14.288  -1.158  1.00  0.00     0.159 HD
ATOM     56  H   UNL     1     -26.397 -15.483  -1.558  1.00  0.00     0.159 HD
BRANCH  52  57
ATOM     57  NH1 ARG A   6     -28.362 -13.750  -1.403  1.00  0.00    -0.270 NA
ATOM     58  H   UNL     1     -28.680 -14.712  -1.653  1.00  0.00     0.191 HD
ENDBRANCH  52  57
ENDBRANCH  50  51
ENDBRANCH  49  50
ENDBRANCH  48  49
ENDBRANCH  43  48
ENDBRANCH  40  43
ENDBRANCH  38  39
BRANCH  38  59
ATOM     59  CB  ARG A   5     -22.647 -10.514  -6.914  1.00  0.00     0.037 C 
BRANCH  59  60
ATOM     60  CG  ARG A   5     -21.455  -9.718  -7.457  1.00  0.00     0.024 C 
BRANCH  60  61
ATOM     61  CD  ARG A   5     -21.601  -9.477  -8.962  1.00  0.00     0.116 C 
BRANCH  61  62
ATOM     62  NE  ARG A   5     -21.186  -8.116  -9.284  1.00  0.00    -0.357 N 
ATOM     63  CZ  ARG A   5     -20.070  -7.777 -10.104  1.00  0.00     0.185 C 
ATOM     64  NH2 ARG A   5     -19.200  -8.780 -10.620  1.00  0.00    -0.370 N 
ATOM     65  H   UNL     1     -21.767  -7.335  -8.901  1.00  0.00     0.163 HD
ATOM     66  H   UNL     1     -19.102  -9.718 -10.177  1.00  0.00     0.159 HD
ATOM     67  H   UNL     1     -18.501  -8.535 -11.357  1.00  0.00     0.159 HD
BRANCH  63  68
ATOM     68  NH1 ARG A   5     -19.851  -6.531 -10.380  1.00  0.00    -0.270 NA
ATOM     69  H   UNL     1     -19.046  -6.232 -10.975  1.00  0.00     0.191 HD
ENDBRANCH  63  68
ENDBRANCH  61  62
ENDBRANCH  60  61
ENDBRANCH  59  60
ENDBRANCH  38  59
ENDBRANCH   3  38
TORSDOF 29
