REMARK SMILES C[C@H](NC(=O)[C@H](CO)NC(=O)[C@H](Cc1ccccc1)NC(=O)[C@@H](N)CO)C(=O)N[C@@H](CCCNC(=N)N)C(=O)N[C@@H](CC(N)=O)C(=O)O
REMARK SMILES IDX 4 1 5 2 3 3 6 5 9 6 10 7 11 8 12 10 20 11 21 12 22 13 23 15
REMARK SMILES IDX 24 16 25 19 26 20 13 22 14 23 15 24 19 25 16 26 18 27 17 28
REMARK SMILES IDX 7 29 8 30 2 32 1 33 27 34 29 35 28 36 30 38 38 39 40 40
REMARK SMILES IDX 39 41 41 43 46 44 47 45 48 46 42 48 43 49 44 50 45 51 31 54
REMARK SMILES IDX 32 55 33 56 34 57 35 58 37 59 36 63
REMARK H PARENT 3 4 9 9 20 14 24 17 24 18 26 21 8 31 29 37 40 42 48 47 44 52
REMARK H PARENT 44 53 34 60 37 61 37 62 36 64
ROOT
ATOM      1  C   SER A   3     -18.396 -10.526  -4.865  1.00  0.00     0.245 C 
ATOM      2  O   SER A   3     -18.760 -11.387  -5.711  1.00  0.00    -0.273 OA
ATOM      3  N   ALA A   4     -18.820 -10.603  -3.507  1.00  0.00    -0.343 N 
ATOM      4  H   UNL     1     -18.462  -9.889  -2.832  1.00  0.00     0.164 HD
ENDROOT
BRANCH   1   5
ATOM      5  CA  SER A   3     -17.458  -9.431  -5.253  1.00  0.00     0.197 C 
BRANCH   5   6
ATOM      6  N   SER A   3     -16.220 -10.016  -5.726  1.00  0.00    -0.340 N 
ATOM      7  C   PHE A   2     -15.257 -10.544  -4.823  1.00  0.00     0.243 C 
ATOM      8  O   PHE A   2     -15.479 -10.572  -3.581  1.00  0.00    -0.273 OA
ATOM      9  H   UNL     1     -16.048 -10.080  -6.756  1.00  0.00     0.164 HD
BRANCH   7  10
ATOM     10  CA  PHE A   2     -13.978 -11.060  -5.382  1.00  0.00     0.175 C 
BRANCH  10  11
ATOM     11  N   PHE A   2     -12.858 -10.484  -4.659  1.00  0.00    -0.343 N 
ATOM     12  C   SER A   1     -12.597  -9.082  -4.702  1.00  0.00     0.239 C 
ATOM     13  O   SER A   1     -13.354  -8.307  -5.350  1.00  0.00    -0.273 OA
ATOM     14  H   UNL     1     -12.223 -11.103  -4.103  1.00  0.00     0.164 HD
BRANCH  12  15
ATOM     15  CA  SER A   1     -11.430  -8.545  -3.930  1.00  0.00     0.167 C 
BRANCH  15  16
ATOM     16  N   SER A   1     -10.864  -7.380  -4.607  1.00  0.00    -0.318 NA
ATOM     17  H   UNL     1     -10.001  -7.089  -4.092  1.00  0.00     0.119 HD
ATOM     18  H   UNL     1     -10.544  -7.674  -5.559  1.00  0.00     0.119 HD
ENDBRANCH  15  16
BRANCH  15  19
ATOM     19  CB  SER A   1     -11.839  -8.205  -2.484  1.00  0.00     0.184 C 
BRANCH  19  20
ATOM     20  OG  SER A   1     -12.062  -6.828  -2.339  1.00  0.00    -0.394 OA
ATOM     21  H   UNL     1     -12.321  -6.688  -1.391  1.00  0.00     0.210 HD
ENDBRANCH  19  20
ENDBRANCH  15  19
ENDBRANCH  12  15
ENDBRANCH  10  11
BRANCH  10  22
ATOM     22  CB  PHE A   2     -13.966 -12.596  -5.326  1.00  0.00     0.070 C 
BRANCH  22  23
ATOM     23  CG  PHE A   2     -12.883 -13.199  -6.183  1.00  0.00    -0.045 A 
ATOM     24  CD1 PHE A   2     -12.723 -12.806  -7.526  1.00  0.00     0.004 A 
ATOM     25  CD2 PHE A   2     -12.092 -14.243  -5.682  1.00  0.00     0.004 A 
ATOM     26  CE1 PHE A   2     -11.747 -13.399  -8.324  1.00  0.00     0.000 A 
ATOM     27  CE2 PHE A   2     -11.134 -14.853  -6.495  1.00  0.00     0.000 A 
ATOM     28  CZ  PHE A   2     -10.955 -14.424  -7.811  1.00  0.00     0.000 A 
ENDBRANCH  22  23
ENDBRANCH  10  22
ENDBRANCH   7  10
ENDBRANCH   5   6
BRANCH   5  29
ATOM     29  CB  SER A   3     -18.064  -8.524  -6.325  1.00  0.00     0.191 C 
BRANCH  29  30
ATOM     30  OG  SER A   3     -19.205  -7.874  -5.834  1.00  0.00    -0.394 OA
ATOM     31  H   UNL     1     -18.886  -7.148  -5.237  1.00  0.00     0.210 HD
ENDBRANCH  29  30
ENDBRANCH   5  29
ENDBRANCH   1   5
BRANCH   3  32
ATOM     32  CA  ALA A   4     -19.821 -11.551  -3.047  1.00  0.00     0.168 C 
ATOM     33  CB  ALA A   4     -19.713 -11.721  -1.533  1.00  0.00     0.041 C 
BRANCH  32  34
ATOM     34  C   ALA A   4     -21.166 -11.052  -3.465  1.00  0.00     0.242 C 
ATOM     35  N   ARG A   5     -21.503 -11.138  -4.843  1.00  0.00    -0.343 N 
ATOM     36  O   ALA A   4     -21.968 -10.540  -2.637  1.00  0.00    -0.273 OA
ATOM     37  H   UNL     1     -21.067 -11.906  -5.400  1.00  0.00     0.164 HD
BRANCH  35  38
ATOM     38  CA  ARG A   5     -22.679 -10.497  -5.388  1.00  0.00     0.171 C 
BRANCH  38  39
ATOM     39  C   ARG A   5     -23.897 -11.195  -4.885  1.00  0.00     0.243 C 
ATOM     40  N   ASN A   6     -24.982 -10.402  -4.433  1.00  0.00    -0.341 N 
ATOM     41  O   ARG A   5     -23.965 -12.455  -4.867  1.00  0.00    -0.273 OA
ATOM     42  H   UNL     1     -24.931  -9.364  -4.552  1.00  0.00     0.164 HD
BRANCH  40  43
ATOM     43  CA  ASN A   6     -26.189 -10.994  -3.883  1.00  0.00     0.201 C 
BRANCH  43  44
ATOM     44  C   ASN A   6     -27.053 -11.522  -4.997  1.00  0.00     0.326 C 
ATOM     45  O   ASN A   6     -27.151 -10.892  -6.084  1.00  0.00    -0.250 OA
BRANCH  44  46
ATOM     46  OXT ASN A   6     -27.773 -12.698  -4.811  1.00  0.00    -0.480 OA
ATOM     47  H   UNL     1     -28.370 -13.063  -5.543  1.00  0.00     0.296 HD
ENDBRANCH  44  46
ENDBRANCH  43  44
BRANCH  43  48
ATOM     48  CB  ASN A   6     -26.930  -9.934  -3.062  1.00  0.00     0.136 C 
BRANCH  48  49
ATOM     49  CG  ASN A   6     -28.019 -10.549  -2.252  1.00  0.00     0.220 C 
ATOM     50  ND2 ASN A   6     -27.701 -11.241  -1.053  1.00  0.00    -0.370 N 
ATOM     51  OD1 ASN A   6     -29.213 -10.484  -2.643  1.00  0.00    -0.275 OA
ATOM     52  H   UNL     1     -28.456 -11.688  -0.487  1.00  0.00     0.159 HD
ATOM     53  H   UNL     1     -26.713 -11.314  -0.724  1.00  0.00     0.159 HD
ENDBRANCH  48  49
ENDBRANCH  43  48
ENDBRANCH  40  43
ENDBRANCH  38  39
BRANCH  38  54
ATOM     54  CB  ARG A   5     -22.651 -10.519  -6.916  1.00  0.00     0.037 C 
BRANCH  54  55
ATOM     55  CG  ARG A   5     -21.463  -9.720  -7.460  1.00  0.00     0.024 C 
BRANCH  55  56
ATOM     56  CD  ARG A   5     -21.603  -9.481  -8.964  1.00  0.00     0.116 C 
BRANCH  56  57
ATOM     57  NE  ARG A   5     -21.191  -8.119  -9.283  1.00  0.00    -0.357 N 
ATOM     58  CZ  ARG A   5     -20.072  -7.775 -10.101  1.00  0.00     0.185 C 
ATOM     59  NH2 ARG A   5     -19.200  -8.775 -10.617  1.00  0.00    -0.370 N 
ATOM     60  H   UNL     1     -21.778  -7.344  -8.897  1.00  0.00     0.163 HD
ATOM     61  H   UNL     1     -19.101  -9.715 -10.178  1.00  0.00     0.159 HD
ATOM     62  H   UNL     1     -18.493  -8.517 -11.342  1.00  0.00     0.159 HD
BRANCH  58  63
ATOM     63  NH1 ARG A   5     -19.842  -6.533 -10.385  1.00  0.00    -0.270 NA
ATOM     64  H   UNL     1     -20.452  -5.762 -10.032  1.00  0.00     0.191 HD
ENDBRANCH  58  63
ENDBRANCH  56  57
ENDBRANCH  55  56
ENDBRANCH  54  55
ENDBRANCH  38  54
ENDBRANCH  35  38
ENDBRANCH  32  34
ENDBRANCH   3  32
TORSDOF 26
