REMARK SMILES CC(C)C[C@H](NC(=O)[C@@H]1CCCN1C(=O)[C@@H](N)CO)C(=O)N[C@@H](Cc1c[nH]cn1)C(=O)N[C@@H](CCCNC(=N)N)C(=O)N[C@@H](CC(N)=O)C(=O)O
REMARK SMILES IDX 20 1 21 2 22 3 5 5 6 6 7 7 8 8 9 10 13 11 12 12 10 13 11 14
REMARK SMILES IDX 14 15 15 16 16 17 17 18 18 21 19 22 4 24 2 25 1 26 3 27
REMARK SMILES IDX 23 28 30 29 32 30 31 31 33 33 41 34 43 35 42 36 44 38 49 39
REMARK SMILES IDX 50 40 51 41 45 43 46 44 47 45 48 46 34 49 35 50 36 51 37 52
REMARK SMILES IDX 38 53 40 54 39 58 24 60 25 61 29 62 26 63 28 64 27 65
REMARK H PARENT 22 4 6 9 17 19 17 20 19 23 32 32 43 37 51 42 47 47 47 48 37 55
REMARK H PARENT 40 56 40 57 39 59 27 66
ROOT
ATOM      1  C   LEU A   3     -18.375 -10.557  -4.864  1.00  0.00     0.243 C 
ATOM      2  O   LEU A   3     -18.751 -11.407  -5.715  1.00  0.00    -0.273 OA
ATOM      3  N   HIS A   4     -18.834 -10.605  -3.516  1.00  0.00    -0.342 N 
ATOM      4  H   UNL     1     -18.549  -9.838  -2.864  1.00  0.00     0.164 HD
ENDROOT
BRANCH   1   5
ATOM      5  CA  LEU A   3     -17.438  -9.463  -5.245  1.00  0.00     0.171 C 
BRANCH   5   6
ATOM      6  N   LEU A   3     -16.191 -10.024  -5.733  1.00  0.00    -0.343 N 
ATOM      7  C   PRO A   2     -15.226 -10.555  -4.827  1.00  0.00     0.243 C 
ATOM      8  O   PRO A   2     -15.454 -10.566  -3.586  1.00  0.00    -0.273 OA
ATOM      9  H   UNL     1     -15.998 -10.044  -6.759  1.00  0.00     0.164 HD
BRANCH   7  10
ATOM     10  CA  PRO A   2     -13.922 -11.082  -5.352  1.00  0.00     0.174 C 
ATOM     11  N   PRO A   2     -14.142 -11.968  -6.490  1.00  0.00    -0.329 N 
ATOM     12  CD  PRO A   2     -13.610 -11.425  -7.730  1.00  0.00     0.120 C 
ATOM     13  CB  PRO A   2     -13.032  -9.953  -5.876  1.00  0.00     0.037 C 
ATOM     14  CG  PRO A   2     -13.110 -10.024  -7.399  1.00  0.00     0.024 C 
BRANCH  11  15
ATOM     15  C   SER A   1     -14.770 -13.265  -6.432  1.00  0.00     0.242 C 
ATOM     16  O   SER A   1     -14.981 -13.895  -7.505  1.00  0.00    -0.273 OA
BRANCH  15  17
ATOM     17  CA  SER A   1     -15.144 -13.926  -5.122  1.00  0.00     0.167 C 
BRANCH  17  18
ATOM     18  N   SER A   1     -16.507 -14.453  -5.209  1.00  0.00    -0.318 NA
ATOM     19  H   UNL     1     -16.770 -14.844  -4.274  1.00  0.00     0.119 HD
ATOM     20  H   UNL     1     -17.157 -13.651  -5.376  1.00  0.00     0.119 HD
ENDBRANCH  17  18
BRANCH  17  21
ATOM     21  CB  SER A   1     -14.162 -15.066  -4.809  1.00  0.00     0.184 C 
BRANCH  21  22
ATOM     22  OG  SER A   1     -12.851 -14.578  -4.701  1.00  0.00    -0.394 OA
ATOM     23  H   UNL     1     -12.792 -14.114  -3.825  1.00  0.00     0.210 HD
ENDBRANCH  21  22
ENDBRANCH  17  21
ENDBRANCH  15  17
ENDBRANCH  11  15
ENDBRANCH   7  10
ENDBRANCH   5   6
BRANCH   5  24
ATOM     24  CB  LEU A   3     -18.089  -8.532  -6.277  1.00  0.00     0.038 C 
BRANCH  24  25
ATOM     25  CG  LEU A   3     -17.540  -7.093  -6.222  1.00  0.00    -0.015 C 
ATOM     26  CD1 LEU A   3     -18.188  -6.267  -7.336  1.00  0.00     0.007 C 
ATOM     27  CD2 LEU A   3     -17.815  -6.427  -4.859  1.00  0.00     0.007 C 
ENDBRANCH  24  25
ENDBRANCH   5  24
ENDBRANCH   1   5
BRANCH   3  28
ATOM     28  CA  HIS A   4     -19.819 -11.560  -3.041  1.00  0.00     0.177 C 
BRANCH  28  29
ATOM     29  C   HIS A   4     -21.168 -11.064  -3.459  1.00  0.00     0.243 C 
ATOM     30  N   ARG A   5     -21.501 -11.143  -4.839  1.00  0.00    -0.343 N 
ATOM     31  O   HIS A   4     -21.968 -10.545  -2.634  1.00  0.00    -0.273 OA
ATOM     32  H   UNL     1     -21.061 -11.906  -5.400  1.00  0.00     0.164 HD
BRANCH  30  33
ATOM     33  CA  ARG A   5     -22.676 -10.498  -5.385  1.00  0.00     0.171 C 
BRANCH  33  34
ATOM     34  C   ARG A   5     -23.896 -11.195  -4.884  1.00  0.00     0.243 C 
ATOM     35  N   ASN A   6     -24.981 -10.403  -4.433  1.00  0.00    -0.341 N 
ATOM     36  O   ARG A   5     -23.965 -12.455  -4.867  1.00  0.00    -0.273 OA
ATOM     37  H   UNL     1     -24.929  -9.364  -4.552  1.00  0.00     0.164 HD
BRANCH  35  38
ATOM     38  CA  ASN A   6     -26.189 -10.994  -3.883  1.00  0.00     0.201 C 
BRANCH  38  39
ATOM     39  C   ASN A   6     -27.052 -11.522  -4.997  1.00  0.00     0.326 C 
ATOM     40  O   ASN A   6     -27.151 -10.892  -6.084  1.00  0.00    -0.250 OA
BRANCH  39  41
ATOM     41  OXT ASN A   6     -27.772 -12.698  -4.811  1.00  0.00    -0.480 OA
ATOM     42  H   UNL     1     -28.369 -13.063  -5.543  1.00  0.00     0.296 HD
ENDBRANCH  39  41
ENDBRANCH  38  39
BRANCH  38  43
ATOM     43  CB  ASN A   6     -26.929  -9.934  -3.062  1.00  0.00     0.136 C 
BRANCH  43  44
ATOM     44  CG  ASN A   6     -28.019 -10.549  -2.252  1.00  0.00     0.220 C 
ATOM     45  ND2 ASN A   6     -27.701 -11.242  -1.053  1.00  0.00    -0.370 N 
ATOM     46  OD1 ASN A   6     -29.213 -10.483  -2.643  1.00  0.00    -0.275 OA
ATOM     47  H   UNL     1     -26.712 -11.315  -0.725  1.00  0.00     0.159 HD
ATOM     48  H   UNL     1     -28.456 -11.688  -0.487  1.00  0.00     0.159 HD
ENDBRANCH  43  44
ENDBRANCH  38  43
ENDBRANCH  35  38
ENDBRANCH  33  34
BRANCH  33  49
ATOM     49  CB  ARG A   5     -22.647 -10.519  -6.914  1.00  0.00     0.037 C 
BRANCH  49  50
ATOM     50  CG  ARG A   5     -21.460  -9.719  -7.458  1.00  0.00     0.024 C 
BRANCH  50  51
ATOM     51  CD  ARG A   5     -21.601  -9.480  -8.962  1.00  0.00     0.116 C 
BRANCH  51  52
ATOM     52  NE  ARG A   5     -21.190  -8.117  -9.282  1.00  0.00    -0.357 N 
ATOM     53  CZ  ARG A   5     -20.075  -7.775 -10.104  1.00  0.00     0.185 C 
ATOM     54  NH2 ARG A   5     -19.200  -8.775 -10.616  1.00  0.00    -0.370 N 
ATOM     55  H   UNL     1     -21.774  -7.342  -8.893  1.00  0.00     0.163 HD
ATOM     56  H   UNL     1     -18.493  -8.518 -11.341  1.00  0.00     0.159 HD
ATOM     57  H   UNL     1     -19.097  -9.710 -10.170  1.00  0.00     0.159 HD
BRANCH  53  58
ATOM     58  NH1 ARG A   5     -19.847  -6.533 -10.392  1.00  0.00    -0.270 NA
ATOM     59  H   UNL     1     -20.457  -5.762 -10.039  1.00  0.00     0.191 HD
ENDBRANCH  53  58
ENDBRANCH  51  52
ENDBRANCH  50  51
ENDBRANCH  49  50
ENDBRANCH  33  49
ENDBRANCH  30  33
ENDBRANCH  28  29
BRANCH  28  60
ATOM     60  CB  HIS A   4     -19.669 -11.710  -1.517  1.00  0.00     0.093 C 
BRANCH  60  61
ATOM     61  CG  HIS A   4     -20.334 -12.945  -0.993  1.00  0.00     0.061 A 
ATOM     62  ND1 HIS A   4     -19.792 -14.177  -1.057  1.00  0.00    -0.242 NA
ATOM     63  CD2 HIS A   4     -21.603 -13.018  -0.463  1.00  0.00     0.107 A 
ATOM     64  CE1 HIS A   4     -20.748 -14.978  -0.541  1.00  0.00     0.196 A 
ATOM     65  NE2 HIS A   4     -21.854 -14.303  -0.175  1.00  0.00    -0.351 N 
ATOM     66  H   UNL     1     -22.728 -14.698   0.238  1.00  0.00     0.167 HD
ENDBRANCH  60  61
ENDBRANCH  28  60
ENDBRANCH   3  28
TORSDOF 26
