REMARK SMILES C[C@H](NC(=O)[C@H](Cc1ccccc1)NC(=O)[C@@H](N)CO)C(=O)N[C@@H](CO)C(=O)N[C@@H](CCCNC(=N)N)C(=O)N[C@@H](CC(N)=O)C(=O)O
REMARK SMILES IDX 21 1 22 2 23 3 2 5 1 6 3 7 4 8 5 9 6 11 14 12 15 13 16 14
REMARK SMILES IDX 17 16 18 17 19 20 20 21 7 23 8 24 9 25 13 26 10 27 12 28
REMARK SMILES IDX 11 29 24 30 27 31 29 32 28 33 30 35 38 36 40 37 39 38 41 40
REMARK SMILES IDX 46 41 47 42 48 43 42 45 43 46 44 47 45 48 31 51 32 52 33 53
REMARK SMILES IDX 34 54 35 55 37 56 36 60 25 62 26 63
REMARK H PARENT 23 4 3 10 14 15 18 18 18 19 20 22 29 34 40 39 48 44 44 49
REMARK H PARENT 44 50 34 57 37 58 37 59 36 61 26 64
ROOT
ATOM      1  C   ALA A   3     -18.395 -10.526  -4.867  1.00  0.00     0.243 C 
ATOM      2  O   ALA A   3     -18.757 -11.390  -5.711  1.00  0.00    -0.273 OA
ATOM      3  N   SER A   4     -18.824 -10.598  -3.510  1.00  0.00    -0.340 N 
ATOM      4  H   UNL     1     -18.500  -9.857  -2.847  1.00  0.00     0.164 HD
ENDROOT
BRANCH   1   5
ATOM      5  CA  ALA A   3     -17.460  -9.430  -5.257  1.00  0.00     0.168 C 
ATOM      6  CB  ALA A   3     -18.074  -8.538  -6.328  1.00  0.00     0.041 C 
BRANCH   5   7
ATOM      7  N   ALA A   3     -16.219 -10.010  -5.727  1.00  0.00    -0.343 N 
ATOM      8  C   PHE A   2     -15.258 -10.543  -4.823  1.00  0.00     0.243 C 
ATOM      9  O   PHE A   2     -15.481 -10.572  -3.581  1.00  0.00    -0.273 OA
ATOM     10  H   UNL     1     -16.038 -10.061  -6.756  1.00  0.00     0.164 HD
BRANCH   8  11
ATOM     11  CA  PHE A   2     -13.979 -11.060  -5.382  1.00  0.00     0.175 C 
BRANCH  11  12
ATOM     12  N   PHE A   2     -12.858 -10.484  -4.658  1.00  0.00    -0.343 N 
ATOM     13  C   SER A   1     -12.597  -9.082  -4.702  1.00  0.00     0.239 C 
ATOM     14  O   SER A   1     -13.354  -8.307  -5.350  1.00  0.00    -0.273 OA
ATOM     15  H   UNL     1     -12.224 -11.103  -4.103  1.00  0.00     0.164 HD
BRANCH  13  16
ATOM     16  CA  SER A   1     -11.430  -8.545  -3.930  1.00  0.00     0.167 C 
BRANCH  16  17
ATOM     17  N   SER A   1     -10.864  -7.380  -4.607  1.00  0.00    -0.318 NA
ATOM     18  H   UNL     1     -10.544  -7.674  -5.559  1.00  0.00     0.119 HD
ATOM     19  H   UNL     1     -10.001  -7.090  -4.092  1.00  0.00     0.119 HD
ENDBRANCH  16  17
BRANCH  16  20
ATOM     20  CB  SER A   1     -11.839  -8.205  -2.484  1.00  0.00     0.184 C 
BRANCH  20  21
ATOM     21  OG  SER A   1     -12.062  -6.828  -2.339  1.00  0.00    -0.394 OA
ATOM     22  H   UNL     1     -12.321  -6.688  -1.391  1.00  0.00     0.210 HD
ENDBRANCH  20  21
ENDBRANCH  16  20
ENDBRANCH  13  16
ENDBRANCH  11  12
BRANCH  11  23
ATOM     23  CB  PHE A   2     -13.966 -12.595  -5.326  1.00  0.00     0.070 C 
BRANCH  23  24
ATOM     24  CG  PHE A   2     -12.883 -13.198  -6.183  1.00  0.00    -0.045 A 
ATOM     25  CD1 PHE A   2     -12.723 -12.806  -7.526  1.00  0.00     0.004 A 
ATOM     26  CD2 PHE A   2     -12.092 -14.243  -5.682  1.00  0.00     0.004 A 
ATOM     27  CE1 PHE A   2     -11.747 -13.399  -8.324  1.00  0.00     0.000 A 
ATOM     28  CE2 PHE A   2     -11.134 -14.853  -6.495  1.00  0.00     0.000 A 
ATOM     29  CZ  PHE A   2     -10.955 -14.424  -7.811  1.00  0.00     0.000 A 
ENDBRANCH  23  24
ENDBRANCH  11  23
ENDBRANCH   8  11
ENDBRANCH   5   7
ENDBRANCH   1   5
BRANCH   3  30
ATOM     30  CA  SER A   4     -19.820 -11.551  -3.048  1.00  0.00     0.197 C 
BRANCH  30  31
ATOM     31  C   SER A   4     -21.165 -11.053  -3.465  1.00  0.00     0.245 C 
ATOM     32  N   ARG A   5     -21.503 -11.138  -4.843  1.00  0.00    -0.342 N 
ATOM     33  O   SER A   4     -21.967 -10.540  -2.636  1.00  0.00    -0.273 OA
ATOM     34  H   UNL     1     -21.066 -11.905  -5.401  1.00  0.00     0.164 HD
BRANCH  32  35
ATOM     35  CA  ARG A   5     -22.678 -10.495  -5.387  1.00  0.00     0.171 C 
BRANCH  35  36
ATOM     36  C   ARG A   5     -23.897 -11.194  -4.885  1.00  0.00     0.243 C 
ATOM     37  N   ASN A   6     -24.982 -10.402  -4.433  1.00  0.00    -0.341 N 
ATOM     38  O   ARG A   5     -23.965 -12.454  -4.868  1.00  0.00    -0.273 OA
ATOM     39  H   UNL     1     -24.931  -9.364  -4.552  1.00  0.00     0.164 HD
BRANCH  37  40
ATOM     40  CA  ASN A   6     -26.189 -10.994  -3.883  1.00  0.00     0.201 C 
BRANCH  40  41
ATOM     41  C   ASN A   6     -27.052 -11.522  -4.997  1.00  0.00     0.326 C 
ATOM     42  O   ASN A   6     -27.151 -10.892  -6.084  1.00  0.00    -0.250 OA
BRANCH  41  43
ATOM     43  OXT ASN A   6     -27.773 -12.698  -4.811  1.00  0.00    -0.480 OA
ATOM     44  H   UNL     1     -28.370 -13.063  -5.543  1.00  0.00     0.296 HD
ENDBRANCH  41  43
ENDBRANCH  40  41
BRANCH  40  45
ATOM     45  CB  ASN A   6     -26.930  -9.934  -3.062  1.00  0.00     0.136 C 
BRANCH  45  46
ATOM     46  CG  ASN A   6     -28.019 -10.549  -2.252  1.00  0.00     0.220 C 
ATOM     47  ND2 ASN A   6     -27.701 -11.241  -1.053  1.00  0.00    -0.370 N 
ATOM     48  OD1 ASN A   6     -29.213 -10.484  -2.643  1.00  0.00    -0.275 OA
ATOM     49  H   UNL     1     -28.456 -11.688  -0.487  1.00  0.00     0.159 HD
ATOM     50  H   UNL     1     -26.713 -11.314  -0.724  1.00  0.00     0.159 HD
ENDBRANCH  45  46
ENDBRANCH  40  45
ENDBRANCH  37  40
ENDBRANCH  35  36
BRANCH  35  51
ATOM     51  CB  ARG A   5     -22.649 -10.514  -6.915  1.00  0.00     0.037 C 
BRANCH  51  52
ATOM     52  CG  ARG A   5     -21.456  -9.722  -7.459  1.00  0.00     0.024 C 
BRANCH  52  53
ATOM     53  CD  ARG A   5     -21.602  -9.477  -8.963  1.00  0.00     0.116 C 
BRANCH  53  54
ATOM     54  NE  ARG A   5     -21.185  -8.116  -9.282  1.00  0.00    -0.357 N 
ATOM     55  CZ  ARG A   5     -20.070  -7.777 -10.103  1.00  0.00     0.185 C 
ATOM     56  NH2 ARG A   5     -19.199  -8.781 -10.618  1.00  0.00    -0.370 N 
ATOM     57  H   UNL     1     -21.764  -7.335  -8.896  1.00  0.00     0.163 HD
ATOM     58  H   UNL     1     -19.097  -9.716 -10.170  1.00  0.00     0.159 HD
ATOM     59  H   UNL     1     -18.502  -8.537 -11.356  1.00  0.00     0.159 HD
BRANCH  55  60
ATOM     60  NH1 ARG A   5     -19.850  -6.531 -10.380  1.00  0.00    -0.270 NA
ATOM     61  H   UNL     1     -19.046  -6.233 -10.975  1.00  0.00     0.191 HD
ENDBRANCH  55  60
ENDBRANCH  53  54
ENDBRANCH  52  53
ENDBRANCH  51  52
ENDBRANCH  35  51
ENDBRANCH  32  35
ENDBRANCH  30  31
BRANCH  30  62
ATOM     62  CB  SER A   4     -19.713 -11.726  -1.529  1.00  0.00     0.191 C 
BRANCH  62  63
ATOM     63  OG  SER A   4     -18.487 -12.318  -1.190  1.00  0.00    -0.394 OA
ATOM     64  H   UNL     1     -17.815 -11.588  -1.151  1.00  0.00     0.210 HD
ENDBRANCH  62  63
ENDBRANCH  30  62
ENDBRANCH   3  30
TORSDOF 26
