REMARK SMILES CC(C)C[C@H](NC(=O)[C@H](Cc1ccc(O)cc1)NC(=O)[C@@H](N)CO)C(=O)N[C@@H](C)C(=O)N[C@@H](CCCNC(=N)N)C(=O)N[C@@H](CC(N)=O)C(=O)O
REMARK SMILES IDX 25 1 26 2 27 3 5 5 6 6 7 7 8 8 9 10 18 11 19 12 20 13 21 15
REMARK SMILES IDX 22 16 23 19 24 20 10 22 11 23 12 24 17 25 13 26 16 27 14 28
REMARK SMILES IDX 15 29 4 31 2 32 1 33 3 34 28 35 29 36 30 37 32 38 31 39
REMARK SMILES IDX 33 41 41 42 43 43 42 44 44 46 49 47 50 48 51 49 45 51 46 52
REMARK SMILES IDX 47 53 48 54 34 57 35 58 36 59 37 60 38 61 40 62 39 66
REMARK H PARENT 27 4 6 9 18 14 22 17 22 18 24 21 15 30 32 40 43 45 51 50 47 55
REMARK H PARENT 47 56 37 63 40 64 40 65 39 67
ROOT
ATOM      1  C   LEU A   3     -18.387 -10.555  -4.860  1.00  0.00     0.243 C 
ATOM      2  O   LEU A   3     -18.759 -11.405  -5.713  1.00  0.00    -0.273 OA
ATOM      3  N   ALA A   4     -18.824 -10.623  -3.505  1.00  0.00    -0.343 N 
ATOM      4  H   UNL     1     -18.480  -9.902  -2.830  1.00  0.00     0.164 HD
ENDROOT
BRANCH   1   5
ATOM      5  CA  LEU A   3     -17.457  -9.457  -5.238  1.00  0.00     0.171 C 
BRANCH   5   6
ATOM      6  N   LEU A   3     -16.217 -10.019  -5.727  1.00  0.00    -0.343 N 
ATOM      7  C   TYR A   2     -15.252 -10.547  -4.825  1.00  0.00     0.243 C 
ATOM      8  O   TYR A   2     -15.472 -10.577  -3.583  1.00  0.00    -0.273 OA
ATOM      9  H   UNL     1     -16.041 -10.067  -6.757  1.00  0.00     0.164 HD
BRANCH   7  10
ATOM     10  CA  TYR A   2     -13.974 -11.061  -5.384  1.00  0.00     0.175 C 
BRANCH  10  11
ATOM     11  N   TYR A   2     -12.855 -10.483  -4.661  1.00  0.00    -0.343 N 
ATOM     12  C   SER A   1     -12.598  -9.080  -4.706  1.00  0.00     0.239 C 
ATOM     13  O   SER A   1     -13.360  -8.310  -5.355  1.00  0.00    -0.273 OA
ATOM     14  H   UNL     1     -12.220 -11.100  -4.104  1.00  0.00     0.164 HD
BRANCH  12  15
ATOM     15  CA  SER A   1     -11.436  -8.537  -3.932  1.00  0.00     0.167 C 
BRANCH  15  16
ATOM     16  N   SER A   1     -10.847  -7.390  -4.625  1.00  0.00    -0.318 NA
ATOM     17  H   UNL     1     -11.539  -6.608  -4.704  1.00  0.00     0.119 HD
ATOM     18  H   UNL     1     -10.030  -7.042  -4.072  1.00  0.00     0.119 HD
ENDBRANCH  15  16
BRANCH  15  19
ATOM     19  CB  SER A   1     -11.839  -8.201  -2.481  1.00  0.00     0.184 C 
BRANCH  19  20
ATOM     20  OG  SER A   1     -12.068  -6.828  -2.314  1.00  0.00    -0.394 OA
ATOM     21  H   UNL     1     -12.987  -6.654  -2.650  1.00  0.00     0.210 HD
ENDBRANCH  19  20
ENDBRANCH  15  19
ENDBRANCH  12  15
ENDBRANCH  10  11
BRANCH  10  22
ATOM     22  CB  TYR A   2     -13.963 -12.596  -5.326  1.00  0.00     0.070 C 
BRANCH  22  23
ATOM     23  CG  TYR A   2     -12.882 -13.200  -6.184  1.00  0.00    -0.045 A 
ATOM     24  CD1 TYR A   2     -12.723 -12.808  -7.526  1.00  0.00     0.007 A 
ATOM     25  CD2 TYR A   2     -12.091 -14.244  -5.683  1.00  0.00     0.007 A 
ATOM     26  CE1 TYR A   2     -11.747 -13.398  -8.324  1.00  0.00     0.046 A 
ATOM     27  CE2 TYR A   2     -11.133 -14.853  -6.495  1.00  0.00     0.046 A 
ATOM     28  CZ  TYR A   2     -10.952 -14.427  -7.813  1.00  0.00     0.115 A 
BRANCH  28  29
ATOM     29  OH  TYR A   2      -9.984 -15.038  -8.607  1.00  0.00    -0.508 OA
ATOM     30  H   UNL     1      -9.829 -14.753  -9.567  1.00  0.00     0.293 HD
ENDBRANCH  28  29
ENDBRANCH  22  23
ENDBRANCH  10  22
ENDBRANCH   7  10
ENDBRANCH   5   6
BRANCH   5  31
ATOM     31  CB  LEU A   3     -18.103  -8.527  -6.272  1.00  0.00     0.038 C 
BRANCH  31  32
ATOM     32  CG  LEU A   3     -17.544  -7.092  -6.222  1.00  0.00    -0.015 C 
ATOM     33  CD1 LEU A   3     -18.189  -6.264  -7.337  1.00  0.00     0.007 C 
ATOM     34  CD2 LEU A   3     -17.812  -6.422  -4.860  1.00  0.00     0.007 C 
ENDBRANCH  31  32
ENDBRANCH   5  31
ENDBRANCH   1   5
BRANCH   3  35
ATOM     35  CA  ALA A   4     -19.829 -11.563  -3.045  1.00  0.00     0.168 C 
ATOM     36  CB  ALA A   4     -19.720 -11.728  -1.531  1.00  0.00     0.041 C 
BRANCH  35  37
ATOM     37  C   ALA A   4     -21.168 -11.055  -3.465  1.00  0.00     0.242 C 
ATOM     38  N   ARG A   5     -21.503 -11.138  -4.843  1.00  0.00    -0.343 N 
ATOM     39  O   ALA A   4     -21.969 -10.540  -2.637  1.00  0.00    -0.273 OA
ATOM     40  H   UNL     1     -21.067 -11.905  -5.401  1.00  0.00     0.164 HD
BRANCH  38  41
ATOM     41  CA  ARG A   5     -22.679 -10.496  -5.388  1.00  0.00     0.171 C 
BRANCH  41  42
ATOM     42  C   ARG A   5     -23.897 -11.194  -4.886  1.00  0.00     0.243 C 
ATOM     43  N   ASN A   6     -24.982 -10.402  -4.433  1.00  0.00    -0.341 N 
ATOM     44  O   ARG A   5     -23.965 -12.454  -4.868  1.00  0.00    -0.273 OA
ATOM     45  H   UNL     1     -24.931  -9.364  -4.552  1.00  0.00     0.164 HD
BRANCH  43  46
ATOM     46  CA  ASN A   6     -26.189 -10.994  -3.883  1.00  0.00     0.201 C 
BRANCH  46  47
ATOM     47  C   ASN A   6     -27.053 -11.522  -4.997  1.00  0.00     0.326 C 
ATOM     48  O   ASN A   6     -27.151 -10.892  -6.084  1.00  0.00    -0.250 OA
BRANCH  47  49
ATOM     49  OXT ASN A   6     -27.773 -12.698  -4.811  1.00  0.00    -0.480 OA
ATOM     50  H   UNL     1     -28.370 -13.063  -5.543  1.00  0.00     0.296 HD
ENDBRANCH  47  49
ENDBRANCH  46  47
BRANCH  46  51
ATOM     51  CB  ASN A   6     -26.930  -9.934  -3.062  1.00  0.00     0.136 C 
BRANCH  51  52
ATOM     52  CG  ASN A   6     -28.019 -10.549  -2.252  1.00  0.00     0.220 C 
ATOM     53  ND2 ASN A   6     -27.701 -11.241  -1.053  1.00  0.00    -0.370 N 
ATOM     54  OD1 ASN A   6     -29.213 -10.484  -2.643  1.00  0.00    -0.275 OA
ATOM     55  H   UNL     1     -28.456 -11.688  -0.487  1.00  0.00     0.159 HD
ATOM     56  H   UNL     1     -26.713 -11.314  -0.724  1.00  0.00     0.159 HD
ENDBRANCH  51  52
ENDBRANCH  46  51
ENDBRANCH  43  46
ENDBRANCH  41  42
BRANCH  41  57
ATOM     57  CB  ARG A   5     -22.649 -10.518  -6.916  1.00  0.00     0.037 C 
BRANCH  57  58
ATOM     58  CG  ARG A   5     -21.461  -9.719  -7.459  1.00  0.00     0.024 C 
BRANCH  58  59
ATOM     59  CD  ARG A   5     -21.602  -9.480  -8.963  1.00  0.00     0.116 C 
BRANCH  59  60
ATOM     60  NE  ARG A   5     -21.190  -8.117  -9.282  1.00  0.00    -0.357 N 
ATOM     61  CZ  ARG A   5     -20.075  -7.775 -10.105  1.00  0.00     0.185 C 
ATOM     62  NH2 ARG A   5     -19.200  -8.774 -10.616  1.00  0.00    -0.370 N 
ATOM     63  H   UNL     1     -21.775  -7.342  -8.894  1.00  0.00     0.163 HD
ATOM     64  H   UNL     1     -18.493  -8.517 -11.342  1.00  0.00     0.159 HD
ATOM     65  H   UNL     1     -19.096  -9.710 -10.171  1.00  0.00     0.159 HD
BRANCH  61  66
ATOM     66  NH1 ARG A   5     -19.847  -6.533 -10.392  1.00  0.00    -0.270 NA
ATOM     67  H   UNL     1     -20.457  -5.762 -10.039  1.00  0.00     0.191 HD
ENDBRANCH  61  66
ENDBRANCH  59  60
ENDBRANCH  58  59
ENDBRANCH  57  58
ENDBRANCH  41  57
ENDBRANCH  38  41
ENDBRANCH  35  37
ENDBRANCH   3  35
TORSDOF 27
